
Note: No compatibility mode selected!


Circuit: my test circuit

Doing analysis at TEMP = 27.000000 and TNOM = 27.000000

Using SPARSE 1.3 as Direct Linear Solver

Initial Transient Solution
--------------------------

Node                                   Voltage
----                                   -------
nodea                                        0
nodeb                                        0
vw1#branch                                   0


No. of Data Rows : 10008
                                my test circuit
                                Transient Analysis  Thu Dec  4 11:19:33  2025
--------------------------------------------------------------------------------
Index   time            v(nodea)        v(nodeb)        
--------------------------------------------------------------------------------
0	0.000000e+00	0.000000e+00	0.000000e+00	
1	1.000000e-08	3.141593e-04	1.570796e-04	
2	2.000000e-08	6.283185e-04	3.141593e-04	
3	4.000000e-08	1.256637e-03	6.283185e-04	
4	8.000000e-08	2.513274e-03	1.256637e-03	
5	1.600000e-07	5.026547e-03	2.513274e-03	
6	3.200000e-07	1.005309e-02	5.026545e-03	
7	6.400000e-07	2.010614e-02	1.005307e-02	
8	1.280000e-06	4.021195e-02	2.010598e-02	
9	2.280000e-06	7.162586e-02	3.581293e-02	
10	3.280000e-06	1.030369e-01	5.151847e-02	
11	4.280000e-06	1.344440e-01	6.722198e-02	
12	5.280000e-06	1.658457e-01	8.292283e-02	
13	6.280000e-06	1.972408e-01	9.862041e-02	
14	7.280000e-06	2.286282e-01	1.143141e-01	
15	8.280000e-06	2.600065e-01	1.300033e-01	
16	9.280000e-06	2.913746e-01	1.456873e-01	
17	1.028000e-05	3.227312e-01	1.613656e-01	
18	1.128000e-05	3.540750e-01	1.770375e-01	
19	1.228000e-05	3.854049e-01	1.927025e-01	
20	1.328000e-05	4.167196e-01	2.083598e-01	
21	1.428000e-05	4.480177e-01	2.240089e-01	
22	1.528000e-05	4.792983e-01	2.396491e-01	
23	1.628000e-05	5.105598e-01	2.552799e-01	
24	1.728000e-05	5.418013e-01	2.709006e-01	
25	1.828000e-05	5.730213e-01	2.865107e-01	
26	1.928000e-05	6.042187e-01	3.021094e-01	
27	2.028000e-05	6.353923e-01	3.176961e-01	
28	2.128000e-05	6.665408e-01	3.332704e-01	
29	2.228000e-05	6.976629e-01	3.488315e-01	
30	2.328000e-05	7.287576e-01	3.643788e-01	
31	2.428000e-05	7.598234e-01	3.799117e-01	
32	2.528000e-05	7.908593e-01	3.954296e-01	
33	2.628000e-05	8.218639e-01	4.109320e-01	
34	2.728000e-05	8.528361e-01	4.264180e-01	
35	2.828000e-05	8.837746e-01	4.418873e-01	
36	2.928000e-05	9.146782e-01	4.573391e-01	
37	3.028000e-05	9.455458e-01	4.727729e-01	
38	3.128000e-05	9.763760e-01	4.881880e-01	
39	3.228000e-05	1.007168e+00	5.035838e-01	
40	3.328000e-05	1.037919e+00	5.189597e-01	
41	3.428000e-05	1.068630e+00	5.343152e-01	
42	3.528000e-05	1.099299e+00	5.496496e-01	
43	3.628000e-05	1.129924e+00	5.649622e-01	
44	3.728000e-05	1.160505e+00	5.802526e-01	
45	3.828000e-05	1.191040e+00	5.955200e-01	
46	3.928000e-05	1.221528e+00	6.107640e-01	
47	4.028000e-05	1.251968e+00	6.259838e-01	
48	4.128000e-05	1.282358e+00	6.411789e-01	
49	4.228000e-05	1.312697e+00	6.563487e-01	
50	4.328000e-05	1.342985e+00	6.714926e-01	
51	4.428000e-05	1.373220e+00	6.866100e-01	
52	4.528000e-05	1.403401e+00	7.017003e-01	
53	4.628000e-05	1.433526e+00	7.167629e-01	
54	4.728000e-05	1.463594e+00	7.317971e-01	

Index   time            v(nodea)        v(nodeb)        
--------------------------------------------------------------------------------
55	4.828000e-05	1.493605e+00	7.468025e-01	
56	4.928000e-05	1.523557e+00	7.617784e-01	
57	5.028000e-05	1.553449e+00	7.767243e-01	
58	5.128000e-05	1.583279e+00	7.916394e-01	
59	5.228000e-05	1.613047e+00	8.065233e-01	
60	5.328000e-05	1.642751e+00	8.213754e-01	
61	5.428000e-05	1.672390e+00	8.361951e-01	
62	5.528000e-05	1.701963e+00	8.509817e-01	
63	5.628000e-05	1.731469e+00	8.657347e-01	
64	5.728000e-05	1.760907e+00	8.804536e-01	
65	5.828000e-05	1.790275e+00	8.951377e-01	
66	5.928000e-05	1.819573e+00	9.097865e-01	
67	6.028000e-05	1.848799e+00	9.243993e-01	
68	6.128000e-05	1.877951e+00	9.389757e-01	
69	6.228000e-05	1.907030e+00	9.535150e-01	
70	6.328000e-05	1.936033e+00	9.680166e-01	
71	6.428000e-05	1.964960e+00	9.824800e-01	
72	6.528000e-05	1.993809e+00	9.969047e-01	
73	6.628000e-05	2.022580e+00	1.011290e+00	
74	6.728000e-05	2.051271e+00	1.025635e+00	
75	6.828000e-05	2.079880e+00	1.039940e+00	
76	6.928000e-05	2.108408e+00	1.054204e+00	
77	7.028000e-05	2.136852e+00	1.068426e+00	
78	7.128000e-05	2.165212e+00	1.082606e+00	
79	7.228000e-05	2.193487e+00	1.096744e+00	
80	7.328000e-05	2.221675e+00	1.110837e+00	
81	7.428000e-05	2.249775e+00	1.124888e+00	
82	7.528000e-05	2.277787e+00	1.138893e+00	
83	7.628000e-05	2.305708e+00	1.152854e+00	
84	7.728000e-05	2.333539e+00	1.166769e+00	
85	7.828000e-05	2.361277e+00	1.180639e+00	
86	7.928000e-05	2.388922e+00	1.194461e+00	
87	8.028000e-05	2.416473e+00	1.208237e+00	
88	8.128000e-05	2.443928e+00	1.221964e+00	
89	8.228000e-05	2.471287e+00	1.235644e+00	
90	8.328000e-05	2.498549e+00	1.249274e+00	
91	8.428000e-05	2.525712e+00	1.262856e+00	
92	8.528000e-05	2.552775e+00	1.276387e+00	
93	8.628000e-05	2.579737e+00	1.289868e+00	
94	8.728000e-05	2.606597e+00	1.303299e+00	
95	8.828000e-05	2.633355e+00	1.316677e+00	
96	8.928000e-05	2.660008e+00	1.330004e+00	
97	9.028000e-05	2.686557e+00	1.343278e+00	
98	9.128000e-05	2.712999e+00	1.356500e+00	
99	9.228000e-05	2.739335e+00	1.369667e+00	
100	9.328000e-05	2.765562e+00	1.382781e+00	
101	9.428000e-05	2.791680e+00	1.395840e+00	
102	9.528000e-05	2.817688e+00	1.408844e+00	
103	9.628000e-05	2.843585e+00	1.421792e+00	
104	9.728000e-05	2.869369e+00	1.434684e+00	
105	9.828000e-05	2.895040e+00	1.447520e+00	
106	9.928000e-05	2.920597e+00	1.460298e+00	
107	1.002800e-04	2.946038e+00	1.473019e+00	
108	1.012800e-04	2.971363e+00	1.485682e+00	
109	1.022800e-04	2.996571e+00	1.498286e+00	
110	1.032800e-04	3.021661e+00	1.510830e+00	
111	1.042800e-04	3.046631e+00	1.523316e+00	
112	1.052800e-04	3.071481e+00	1.535741e+00	

Index   time            v(nodea)        v(nodeb)        
--------------------------------------------------------------------------------
113	1.062800e-04	3.096210e+00	1.548105e+00	
114	1.072800e-04	3.120816e+00	1.560408e+00	
115	1.082800e-04	3.145300e+00	1.572650e+00	
116	1.092800e-04	3.169659e+00	1.584829e+00	
117	1.102800e-04	3.193893e+00	1.596946e+00	
118	1.112800e-04	3.218001e+00	1.609000e+00	
119	1.122800e-04	3.241982e+00	1.620991e+00	
120	1.132800e-04	3.265834e+00	1.632917e+00	
121	1.142800e-04	3.289558e+00	1.644779e+00	
122	1.152800e-04	3.313153e+00	1.656576e+00	
123	1.162800e-04	3.336616e+00	1.668308e+00	
124	1.172800e-04	3.359947e+00	1.679974e+00	
125	1.182800e-04	3.383146e+00	1.691573e+00	
126	1.192800e-04	3.406212e+00	1.703106e+00	
127	1.202800e-04	3.429143e+00	1.714571e+00	
128	1.212800e-04	3.451938e+00	1.725969e+00	
129	1.222800e-04	3.474597e+00	1.737299e+00	
130	1.232800e-04	3.497119e+00	1.748560e+00	
131	1.242800e-04	3.519503e+00	1.759752e+00	
132	1.252800e-04	3.541748e+00	1.770874e+00	
133	1.262800e-04	3.563854e+00	1.781927e+00	
134	1.272800e-04	3.585818e+00	1.792909e+00	
135	1.282800e-04	3.607641e+00	1.803821e+00	
136	1.292800e-04	3.629322e+00	1.814661e+00	
137	1.302800e-04	3.650859e+00	1.825430e+00	
138	1.312800e-04	3.672252e+00	1.836126e+00	
139	1.322800e-04	3.693500e+00	1.846750e+00	
140	1.332800e-04	3.714603e+00	1.857301e+00	
141	1.342800e-04	3.735558e+00	1.867779e+00	
142	1.352800e-04	3.756367e+00	1.878183e+00	
143	1.362800e-04	3.777027e+00	1.888513e+00	
144	1.372800e-04	3.797538e+00	1.898769e+00	
145	1.382800e-04	3.817898e+00	1.908949e+00	
146	1.392800e-04	3.838109e+00	1.919054e+00	
147	1.402800e-04	3.858167e+00	1.929084e+00	
148	1.412800e-04	3.878074e+00	1.939037e+00	
149	1.422800e-04	3.897827e+00	1.948913e+00	
150	1.432800e-04	3.917426e+00	1.958713e+00	
151	1.442800e-04	3.936871e+00	1.968436e+00	
152	1.452800e-04	3.956160e+00	1.978080e+00	
153	1.462800e-04	3.975293e+00	1.987647e+00	
154	1.472800e-04	3.994270e+00	1.997135e+00	
155	1.482800e-04	4.013088e+00	2.006544e+00	
156	1.492800e-04	4.031748e+00	2.015874e+00	
157	1.502800e-04	4.050249e+00	2.025125e+00	
158	1.512800e-04	4.068590e+00	2.034295e+00	
159	1.522800e-04	4.086771e+00	2.043385e+00	
160	1.532800e-04	4.104790e+00	2.052395e+00	
161	1.542800e-04	4.122647e+00	2.061323e+00	
162	1.552800e-04	4.140341e+00	2.070170e+00	
163	1.562800e-04	4.157872e+00	2.078936e+00	
164	1.572800e-04	4.175238e+00	2.087619e+00	
165	1.582800e-04	4.192440e+00	2.096220e+00	
166	1.592800e-04	4.209476e+00	2.104738e+00	
167	1.602800e-04	4.226346e+00	2.113173e+00	
168	1.612800e-04	4.243050e+00	2.121525e+00	
169	1.622800e-04	4.259585e+00	2.129793e+00	
170	1.632800e-04	4.275953e+00	2.137977e+00	

Index   time            v(nodea)        v(nodeb)        
--------------------------------------------------------------------------------
171	1.642800e-04	4.292152e+00	2.146076e+00	
172	1.652800e-04	4.308181e+00	2.154091e+00	
173	1.662800e-04	4.324040e+00	2.162020e+00	
174	1.672800e-04	4.339729e+00	2.169865e+00	
175	1.682800e-04	4.355246e+00	2.177623e+00	
176	1.692800e-04	4.370592e+00	2.185296e+00	
177	1.702800e-04	4.385764e+00	2.192882e+00	
178	1.712800e-04	4.400764e+00	2.200382e+00	
179	1.722800e-04	4.415590e+00	2.207795e+00	
180	1.732800e-04	4.430241e+00	2.215121e+00	
181	1.742800e-04	4.444718e+00	2.222359e+00	
182	1.752800e-04	4.459019e+00	2.229510e+00	
183	1.762800e-04	4.473144e+00	2.236572e+00	
184	1.772800e-04	4.487093e+00	2.243546e+00	
185	1.782800e-04	4.500864e+00	2.250432e+00	
186	1.792800e-04	4.514458e+00	2.257229e+00	
187	1.802800e-04	4.527874e+00	2.263937e+00	
188	1.812800e-04	4.541110e+00	2.270555e+00	
189	1.822800e-04	4.554168e+00	2.277084e+00	
190	1.832800e-04	4.567046e+00	2.283523e+00	
191	1.842800e-04	4.579743e+00	2.289871e+00	
192	1.852800e-04	4.592260e+00	2.296130e+00	
193	1.862800e-04	4.604595e+00	2.302297e+00	
194	1.872800e-04	4.616748e+00	2.308374e+00	
195	1.882800e-04	4.628720e+00	2.314360e+00	
196	1.892800e-04	4.640508e+00	2.320254e+00	
197	1.902800e-04	4.652113e+00	2.326057e+00	
198	1.912800e-04	4.663535e+00	2.331768e+00	
199	1.922800e-04	4.674773e+00	2.337386e+00	
200	1.932800e-04	4.685826e+00	2.342913e+00	
201	1.942800e-04	4.696694e+00	2.348347e+00	
202	1.952800e-04	4.707376e+00	2.353688e+00	
203	1.962800e-04	4.717873e+00	2.358937e+00	
204	1.972800e-04	4.728184e+00	2.364092e+00	
205	1.982800e-04	4.738307e+00	2.369154e+00	
206	1.992800e-04	4.748244e+00	2.374122e+00	
207	2.002800e-04	4.757993e+00	2.378997e+00	
208	2.012800e-04	4.767555e+00	2.383777e+00	
209	2.022800e-04	4.776928e+00	2.388464e+00	
210	2.032800e-04	4.786113e+00	2.393056e+00	
211	2.042800e-04	4.795109e+00	2.397554e+00	
212	2.052800e-04	4.803915e+00	2.401958e+00	
213	2.062800e-04	4.812532e+00	2.406266e+00	
214	2.072800e-04	4.820959e+00	2.410479e+00	
215	2.082800e-04	4.829195e+00	2.414598e+00	
216	2.092800e-04	4.837241e+00	2.418621e+00	
217	2.102800e-04	4.845096e+00	2.422548e+00	
218	2.112800e-04	4.852759e+00	2.426380e+00	
219	2.122800e-04	4.860231e+00	2.430116e+00	
220	2.132800e-04	4.867512e+00	2.433756e+00	
221	2.142800e-04	4.874600e+00	2.437300e+00	
222	2.152800e-04	4.881495e+00	2.440748e+00	
223	2.162800e-04	4.888198e+00	2.444099e+00	
224	2.172800e-04	4.894708e+00	2.447354e+00	
225	2.182800e-04	4.901024e+00	2.450512e+00	
226	2.192800e-04	4.907148e+00	2.453574e+00	
227	2.202800e-04	4.913077e+00	2.456538e+00	
228	2.212800e-04	4.918812e+00	2.459406e+00	

Index   time            v(nodea)        v(nodeb)        
--------------------------------------------------------------------------------
229	2.222800e-04	4.924354e+00	2.462177e+00	
230	2.232800e-04	4.929700e+00	2.464850e+00	
231	2.242800e-04	4.934853e+00	2.467426e+00	
232	2.252800e-04	4.939810e+00	2.469905e+00	
233	2.262800e-04	4.944573e+00	2.472286e+00	
234	2.272800e-04	4.949140e+00	2.474570e+00	
235	2.282800e-04	4.953512e+00	2.476756e+00	
236	2.292800e-04	4.957688e+00	2.478844e+00	
237	2.302800e-04	4.961668e+00	2.480834e+00	
238	2.312800e-04	4.965453e+00	2.482726e+00	
239	2.322800e-04	4.969042e+00	2.484521e+00	
240	2.332800e-04	4.972434e+00	2.486217e+00	
241	2.342800e-04	4.975630e+00	2.487815e+00	
242	2.352800e-04	4.978630e+00	2.489315e+00	
243	2.362800e-04	4.981433e+00	2.490717e+00	
244	2.372800e-04	4.984040e+00	2.492020e+00	
245	2.382800e-04	4.986449e+00	2.493225e+00	
246	2.392800e-04	4.988662e+00	2.494331e+00	
247	2.402800e-04	4.990678e+00	2.495339e+00	
248	2.412800e-04	4.992497e+00	2.496249e+00	
249	2.422800e-04	4.994119e+00	2.497060e+00	
250	2.432800e-04	4.995544e+00	2.497772e+00	
251	2.442800e-04	4.996771e+00	2.498386e+00	
252	2.452800e-04	4.997801e+00	2.498901e+00	
253	2.462800e-04	4.998634e+00	2.499317e+00	
254	2.472800e-04	4.999270e+00	2.499635e+00	
255	2.482800e-04	4.999708e+00	2.499854e+00	
256	2.492800e-04	4.999949e+00	2.499974e+00	
257	2.502800e-04	4.999992e+00	2.499996e+00	
258	2.512800e-04	4.999838e+00	2.499919e+00	
259	2.522800e-04	4.999487e+00	2.499743e+00	
260	2.532800e-04	4.998938e+00	2.499469e+00	
261	2.542800e-04	4.998192e+00	2.499096e+00	
262	2.552800e-04	4.997249e+00	2.498624e+00	
263	2.562800e-04	4.996108e+00	2.498054e+00	
264	2.572800e-04	4.994770e+00	2.497385e+00	
265	2.582800e-04	4.993235e+00	2.496618e+00	
266	2.592800e-04	4.991503e+00	2.495751e+00	
267	2.602800e-04	4.989574e+00	2.494787e+00	
268	2.612800e-04	4.987447e+00	2.493724e+00	
269	2.622800e-04	4.985124e+00	2.492562e+00	
270	2.632800e-04	4.982604e+00	2.491302e+00	
271	2.642800e-04	4.979888e+00	2.489944e+00	
272	2.652800e-04	4.976974e+00	2.488487e+00	
273	2.662800e-04	4.973865e+00	2.486932e+00	
274	2.672800e-04	4.970558e+00	2.485279e+00	
275	2.682800e-04	4.967056e+00	2.483528e+00	
276	2.692800e-04	4.963358e+00	2.481679e+00	
277	2.702800e-04	4.959463e+00	2.479732e+00	
278	2.712800e-04	4.955373e+00	2.477687e+00	
279	2.722800e-04	4.951087e+00	2.475544e+00	
280	2.732800e-04	4.946606e+00	2.473303e+00	
281	2.742800e-04	4.941930e+00	2.470965e+00	
282	2.752800e-04	4.937058e+00	2.468529e+00	
283	2.762800e-04	4.931991e+00	2.465996e+00	
284	2.772800e-04	4.926730e+00	2.463365e+00	
285	2.782800e-04	4.921274e+00	2.460637e+00	
286	2.792800e-04	4.915624e+00	2.457812e+00	

Index   time            v(nodea)        v(nodeb)        
--------------------------------------------------------------------------------
287	2.802800e-04	4.909780e+00	2.454890e+00	
288	2.812800e-04	4.903742e+00	2.451871e+00	
289	2.822800e-04	4.897511e+00	2.448755e+00	
290	2.832800e-04	4.891086e+00	2.445543e+00	
291	2.842800e-04	4.884468e+00	2.442234e+00	
292	2.852800e-04	4.877657e+00	2.438829e+00	
293	2.862800e-04	4.870654e+00	2.435327e+00	
294	2.872800e-04	4.863458e+00	2.431729e+00	
295	2.882800e-04	4.856071e+00	2.428035e+00	
296	2.892800e-04	4.848491e+00	2.424246e+00	
297	2.902800e-04	4.840721e+00	2.420360e+00	
298	2.912800e-04	4.832759e+00	2.416379e+00	
299	2.922800e-04	4.824606e+00	2.412303e+00	
300	2.932800e-04	4.816263e+00	2.408132e+00	
301	2.942800e-04	4.807730e+00	2.403865e+00	
302	2.952800e-04	4.799007e+00	2.399503e+00	
303	2.962800e-04	4.790094e+00	2.395047e+00	
304	2.972800e-04	4.780993e+00	2.390496e+00	
305	2.982800e-04	4.771702e+00	2.385851e+00	
306	2.992800e-04	4.762224e+00	2.381112e+00	
307	3.002800e-04	4.752557e+00	2.376278e+00	
308	3.012800e-04	4.742703e+00	2.371351e+00	
309	3.022800e-04	4.732661e+00	2.366331e+00	
310	3.032800e-04	4.722433e+00	2.361216e+00	
311	3.042800e-04	4.712018e+00	2.356009e+00	
312	3.052800e-04	4.701417e+00	2.350708e+00	
313	3.062800e-04	4.690630e+00	2.345315e+00	
314	3.072800e-04	4.679659e+00	2.339829e+00	
315	3.082800e-04	4.668502e+00	2.334251e+00	
316	3.092800e-04	4.657162e+00	2.328581e+00	
317	3.102800e-04	4.645637e+00	2.322819e+00	
318	3.112800e-04	4.633929e+00	2.316965e+00	
319	3.122800e-04	4.622038e+00	2.311019e+00	
320	3.132800e-04	4.609965e+00	2.304982e+00	
321	3.142800e-04	4.597709e+00	2.298855e+00	
322	3.152800e-04	4.585273e+00	2.292636e+00	
323	3.162800e-04	4.572655e+00	2.286327e+00	
324	3.172800e-04	4.559856e+00	2.279928e+00	
325	3.182800e-04	4.546878e+00	2.273439e+00	
326	3.192800e-04	4.533720e+00	2.266860e+00	
327	3.202800e-04	4.520383e+00	2.260191e+00	
328	3.212800e-04	4.506868e+00	2.253434e+00	
329	3.222800e-04	4.493174e+00	2.246587e+00	
330	3.232800e-04	4.479304e+00	2.239652e+00	
331	3.242800e-04	4.465256e+00	2.232628e+00	
332	3.252800e-04	4.451032e+00	2.225516e+00	
333	3.262800e-04	4.436633e+00	2.218316e+00	
334	3.272800e-04	4.422058e+00	2.211029e+00	
335	3.282800e-04	4.407309e+00	2.203654e+00	
336	3.292800e-04	4.392386e+00	2.196193e+00	
337	3.302800e-04	4.377289e+00	2.188644e+00	
338	3.312800e-04	4.362019e+00	2.181010e+00	
339	3.322800e-04	4.346578e+00	2.173289e+00	
340	3.332800e-04	4.330965e+00	2.165482e+00	
341	3.342800e-04	4.315180e+00	2.157590e+00	
342	3.352800e-04	4.299226e+00	2.149613e+00	
343	3.362800e-04	4.283101e+00	2.141551e+00	
344	3.372800e-04	4.266808e+00	2.133404e+00	

Index   time            v(nodea)        v(nodeb)        
--------------------------------------------------------------------------------
345	3.382800e-04	4.250346e+00	2.125173e+00	
346	3.392800e-04	4.233717e+00	2.116858e+00	
347	3.402800e-04	4.216920e+00	2.108460e+00	
348	3.412800e-04	4.199956e+00	2.099978e+00	
349	3.422800e-04	4.182827e+00	2.091414e+00	
350	3.432800e-04	4.165533e+00	2.082767e+00	
351	3.442800e-04	4.148075e+00	2.074037e+00	
352	3.452800e-04	4.130452e+00	2.065226e+00	
353	3.462800e-04	4.112667e+00	2.056333e+00	
354	3.472800e-04	4.094719e+00	2.047359e+00	
355	3.482800e-04	4.076609e+00	2.038305e+00	
356	3.492800e-04	4.058339e+00	2.029169e+00	
357	3.502800e-04	4.039908e+00	2.019954e+00	
358	3.512800e-04	4.021318e+00	2.010659e+00	
359	3.522800e-04	4.002569e+00	2.001285e+00	
360	3.532800e-04	3.983662e+00	1.991831e+00	
361	3.542800e-04	3.964598e+00	1.982299e+00	
362	3.552800e-04	3.945378e+00	1.972689e+00	
363	3.562800e-04	3.926001e+00	1.963001e+00	
364	3.572800e-04	3.906470e+00	1.953235e+00	
365	3.582800e-04	3.886784e+00	1.943392e+00	
366	3.592800e-04	3.866945e+00	1.933472e+00	
367	3.602800e-04	3.846953e+00	1.923477e+00	
368	3.612800e-04	3.826810e+00	1.913405e+00	
369	3.622800e-04	3.806515e+00	1.903257e+00	
370	3.632800e-04	3.786070e+00	1.893035e+00	
371	3.642800e-04	3.765475e+00	1.882738e+00	
372	3.652800e-04	3.744732e+00	1.872366e+00	
373	3.662800e-04	3.723841e+00	1.861921e+00	
374	3.672800e-04	3.702803e+00	1.851402e+00	
375	3.682800e-04	3.681619e+00	1.840810e+00	
376	3.692800e-04	3.660290e+00	1.830145e+00	
377	3.702800e-04	3.638816e+00	1.819408e+00	
378	3.712800e-04	3.617198e+00	1.808599e+00	
379	3.722800e-04	3.595438e+00	1.797719e+00	
380	3.732800e-04	3.573535e+00	1.786768e+00	
381	3.742800e-04	3.551492e+00	1.775746e+00	
382	3.752800e-04	3.529308e+00	1.764654e+00	
383	3.762800e-04	3.506985e+00	1.753493e+00	
384	3.772800e-04	3.484524e+00	1.742262e+00	
385	3.782800e-04	3.461925e+00	1.730962e+00	
386	3.792800e-04	3.439189e+00	1.719595e+00	
387	3.802800e-04	3.416318e+00	1.708159e+00	
388	3.812800e-04	3.393312e+00	1.696656e+00	
389	3.822800e-04	3.370171e+00	1.685086e+00	
390	3.832800e-04	3.346898e+00	1.673449e+00	
391	3.842800e-04	3.323493e+00	1.661746e+00	
392	3.852800e-04	3.299956e+00	1.649978e+00	
393	3.862800e-04	3.276289e+00	1.638144e+00	
394	3.872800e-04	3.252493e+00	1.626246e+00	
395	3.882800e-04	3.228568e+00	1.614284e+00	
396	3.892800e-04	3.204516e+00	1.602258e+00	
397	3.902800e-04	3.180337e+00	1.590169e+00	
398	3.912800e-04	3.156033e+00	1.578017e+00	
399	3.922800e-04	3.131604e+00	1.565802e+00	
400	3.932800e-04	3.107052e+00	1.553526e+00	
401	3.942800e-04	3.082377e+00	1.541188e+00	
402	3.952800e-04	3.057580e+00	1.528790e+00	

Index   time            v(nodea)        v(nodeb)        
--------------------------------------------------------------------------------
403	3.962800e-04	3.032662e+00	1.516331e+00	
404	3.972800e-04	3.007625e+00	1.503813e+00	
405	3.982800e-04	2.982469e+00	1.491235e+00	
406	3.992800e-04	2.957196e+00	1.478598e+00	
407	4.002800e-04	2.931805e+00	1.465903e+00	
408	4.012800e-04	2.906299e+00	1.453150e+00	
409	4.022800e-04	2.880678e+00	1.440339e+00	
410	4.032800e-04	2.854944e+00	1.427472e+00	
411	4.042800e-04	2.829096e+00	1.414548e+00	
412	4.052800e-04	2.803137e+00	1.401569e+00	
413	4.062800e-04	2.777067e+00	1.388534e+00	
414	4.072800e-04	2.750888e+00	1.375444e+00	
415	4.082800e-04	2.724600e+00	1.362300e+00	
416	4.092800e-04	2.698205e+00	1.349102e+00	
417	4.102800e-04	2.671703e+00	1.335851e+00	
418	4.112800e-04	2.645095e+00	1.322548e+00	
419	4.122800e-04	2.618383e+00	1.309192e+00	
420	4.132800e-04	2.591568e+00	1.295784e+00	
421	4.142800e-04	2.564650e+00	1.282325e+00	
422	4.152800e-04	2.537632e+00	1.268816e+00	
423	4.162800e-04	2.510513e+00	1.255256e+00	
424	4.172800e-04	2.483295e+00	1.241647e+00	
425	4.182800e-04	2.455978e+00	1.227989e+00	
426	4.192800e-04	2.428565e+00	1.214283e+00	
427	4.202800e-04	2.401056e+00	1.200528e+00	
428	4.212800e-04	2.373452e+00	1.186726e+00	
429	4.222800e-04	2.345755e+00	1.172877e+00	
430	4.232800e-04	2.317965e+00	1.158982e+00	
431	4.242800e-04	2.290083e+00	1.145042e+00	
432	4.252800e-04	2.262111e+00	1.131056e+00	
433	4.262800e-04	2.234050e+00	1.117025e+00	
434	4.272800e-04	2.205900e+00	1.102950e+00	
435	4.282800e-04	2.177664e+00	1.088832e+00	
436	4.292800e-04	2.149341e+00	1.074671e+00	
437	4.302800e-04	2.120934e+00	1.060467e+00	
438	4.312800e-04	2.092443e+00	1.046221e+00	
439	4.322800e-04	2.063869e+00	1.031934e+00	
440	4.332800e-04	2.035214e+00	1.017607e+00	
441	4.342800e-04	2.006478e+00	1.003239e+00	
442	4.352800e-04	1.977663e+00	9.888317e-01	
443	4.362800e-04	1.948771e+00	9.743853e-01	
444	4.372800e-04	1.919801e+00	9.599004e-01	
445	4.382800e-04	1.890755e+00	9.453776e-01	
446	4.392800e-04	1.861635e+00	9.308175e-01	
447	4.402800e-04	1.832441e+00	9.162206e-01	
448	4.412800e-04	1.803175e+00	9.015876e-01	
449	4.422800e-04	1.773838e+00	8.869189e-01	
450	4.432800e-04	1.744431e+00	8.722153e-01	
451	4.442800e-04	1.714954e+00	8.574772e-01	
452	4.452800e-04	1.685411e+00	8.427053e-01	
453	4.462800e-04	1.655800e+00	8.279001e-01	
454	4.472800e-04	1.626124e+00	8.130622e-01	
455	4.482800e-04	1.596384e+00	7.981922e-01	
456	4.492800e-04	1.566581e+00	7.832907e-01	
457	4.502800e-04	1.536717e+00	7.683583e-01	
458	4.512800e-04	1.506791e+00	7.533956e-01	
459	4.522800e-04	1.476806e+00	7.384031e-01	
460	4.532800e-04	1.446763e+00	7.233815e-01	

Index   time            v(nodea)        v(nodeb)        
--------------------------------------------------------------------------------
461	4.542800e-04	1.416663e+00	7.083313e-01	
462	4.552800e-04	1.386506e+00	6.932531e-01	
463	4.562800e-04	1.356295e+00	6.781476e-01	
464	4.572800e-04	1.326031e+00	6.630153e-01	
465	4.582800e-04	1.295714e+00	6.478568e-01	
466	4.592800e-04	1.265345e+00	6.326727e-01	
467	4.602800e-04	1.234927e+00	6.174637e-01	
468	4.612800e-04	1.204461e+00	6.022303e-01	
469	4.622800e-04	1.173946e+00	5.869731e-01	
470	4.632800e-04	1.143386e+00	5.716928e-01	
471	4.642800e-04	1.112780e+00	5.563898e-01	
472	4.652800e-04	1.082130e+00	5.410650e-01	
473	4.662800e-04	1.051437e+00	5.257187e-01	
474	4.672800e-04	1.020703e+00	5.103517e-01	
475	4.682800e-04	9.899291e-01	4.949646e-01	
476	4.692800e-04	9.591157e-01	4.795579e-01	
477	4.702800e-04	9.282645e-01	4.641322e-01	
478	4.712800e-04	8.973766e-01	4.486883e-01	
479	4.722800e-04	8.664533e-01	4.332266e-01	
480	4.732800e-04	8.354957e-01	4.177479e-01	
481	4.742800e-04	8.045052e-01	4.022526e-01	
482	4.752800e-04	7.734830e-01	3.867415e-01	
483	4.762800e-04	7.424302e-01	3.712151e-01	
484	4.772800e-04	7.113480e-01	3.556740e-01	
485	4.782800e-04	6.802378e-01	3.401189e-01	
486	4.792800e-04	6.491008e-01	3.245504e-01	
487	4.802800e-04	6.179381e-01	3.089691e-01	
488	4.812800e-04	5.867510e-01	2.933755e-01	
489	4.822800e-04	5.555408e-01	2.777704e-01	
490	4.832800e-04	5.243086e-01	2.621543e-01	
491	4.842800e-04	4.930558e-01	2.465279e-01	
492	4.852800e-04	4.617834e-01	2.308917e-01	
493	4.862800e-04	4.304929e-01	2.152464e-01	
494	4.872800e-04	3.991853e-01	1.995926e-01	
495	4.882800e-04	3.678620e-01	1.839310e-01	
496	4.892800e-04	3.365241e-01	1.682621e-01	
497	4.902800e-04	3.051730e-01	1.525865e-01	
498	4.912800e-04	2.738098e-01	1.369049e-01	
499	4.922800e-04	2.424359e-01	1.212179e-01	
500	4.932800e-04	2.110523e-01	1.055262e-01	
501	4.942800e-04	1.796604e-01	8.983021e-02	
502	4.952800e-04	1.482614e-01	7.413072e-02	
503	4.962800e-04	1.168566e-01	5.842830e-02	
504	4.972800e-04	8.544716e-02	4.272358e-02	
505	4.982800e-04	5.403434e-02	2.701717e-02	
506	4.992800e-04	2.261939e-02	1.130969e-02	
507	5.002800e-04	-8.79645e-03	-4.39823e-03	
508	5.012800e-04	-4.02120e-02	-2.01060e-02	
509	5.022800e-04	-7.16259e-02	-3.58129e-02	
510	5.032800e-04	-1.03037e-01	-5.15185e-02	
511	5.042800e-04	-1.34444e-01	-6.72220e-02	
512	5.052800e-04	-1.65846e-01	-8.29228e-02	
513	5.062800e-04	-1.97241e-01	-9.86204e-02	
514	5.072800e-04	-2.28628e-01	-1.14314e-01	
515	5.082800e-04	-2.60007e-01	-1.30003e-01	
516	5.092800e-04	-2.91375e-01	-1.45687e-01	
517	5.102800e-04	-3.22731e-01	-1.61366e-01	
518	5.112800e-04	-3.54075e-01	-1.77038e-01	

Index   time            v(nodea)        v(nodeb)        
--------------------------------------------------------------------------------
519	5.122800e-04	-3.85405e-01	-1.92702e-01	
520	5.132800e-04	-4.16720e-01	-2.08360e-01	
521	5.142800e-04	-4.48018e-01	-2.24009e-01	
522	5.152800e-04	-4.79298e-01	-2.39649e-01	
523	5.162800e-04	-5.10560e-01	-2.55280e-01	
524	5.172800e-04	-5.41801e-01	-2.70901e-01	
525	5.182800e-04	-5.73021e-01	-2.86511e-01	
526	5.192800e-04	-6.04219e-01	-3.02109e-01	
527	5.202800e-04	-6.35392e-01	-3.17696e-01	
528	5.212800e-04	-6.66541e-01	-3.33270e-01	
529	5.222800e-04	-6.97663e-01	-3.48831e-01	
530	5.232800e-04	-7.28758e-01	-3.64379e-01	
531	5.242800e-04	-7.59823e-01	-3.79912e-01	
532	5.252800e-04	-7.90859e-01	-3.95430e-01	
533	5.262800e-04	-8.21864e-01	-4.10932e-01	
534	5.272800e-04	-8.52836e-01	-4.26418e-01	
535	5.282800e-04	-8.83775e-01	-4.41887e-01	
536	5.292800e-04	-9.14678e-01	-4.57339e-01	
537	5.302800e-04	-9.45546e-01	-4.72773e-01	
538	5.312800e-04	-9.76376e-01	-4.88188e-01	
539	5.322800e-04	-1.00717e+00	-5.03584e-01	
540	5.332800e-04	-1.03792e+00	-5.18960e-01	
541	5.342800e-04	-1.06863e+00	-5.34315e-01	
542	5.352800e-04	-1.09930e+00	-5.49650e-01	
543	5.362800e-04	-1.12992e+00	-5.64962e-01	
544	5.372800e-04	-1.16051e+00	-5.80253e-01	
545	5.382800e-04	-1.19104e+00	-5.95520e-01	
546	5.392800e-04	-1.22153e+00	-6.10764e-01	
547	5.402800e-04	-1.25197e+00	-6.25984e-01	
548	5.412800e-04	-1.28236e+00	-6.41179e-01	
549	5.422800e-04	-1.31270e+00	-6.56349e-01	
550	5.432800e-04	-1.34299e+00	-6.71493e-01	
551	5.442800e-04	-1.37322e+00	-6.86610e-01	
552	5.452800e-04	-1.40340e+00	-7.01700e-01	
553	5.462800e-04	-1.43353e+00	-7.16763e-01	
554	5.472800e-04	-1.46359e+00	-7.31797e-01	
555	5.482800e-04	-1.49361e+00	-7.46803e-01	
556	5.492800e-04	-1.52356e+00	-7.61778e-01	
557	5.502800e-04	-1.55345e+00	-7.76724e-01	
558	5.512800e-04	-1.58328e+00	-7.91639e-01	
559	5.522800e-04	-1.61305e+00	-8.06523e-01	
560	5.532800e-04	-1.64275e+00	-8.21375e-01	
561	5.542800e-04	-1.67239e+00	-8.36195e-01	
562	5.552800e-04	-1.70196e+00	-8.50982e-01	
563	5.562800e-04	-1.73147e+00	-8.65735e-01	
564	5.572800e-04	-1.76091e+00	-8.80454e-01	
565	5.582800e-04	-1.79028e+00	-8.95138e-01	
566	5.592800e-04	-1.81957e+00	-9.09786e-01	
567	5.602800e-04	-1.84880e+00	-9.24399e-01	
568	5.612800e-04	-1.87795e+00	-9.38976e-01	
569	5.622800e-04	-1.90703e+00	-9.53515e-01	
570	5.632800e-04	-1.93603e+00	-9.68017e-01	
571	5.642800e-04	-1.96496e+00	-9.82480e-01	
572	5.652800e-04	-1.99381e+00	-9.96905e-01	
573	5.662800e-04	-2.02258e+00	-1.01129e+00	
574	5.672800e-04	-2.05127e+00	-1.02564e+00	
575	5.682800e-04	-2.07988e+00	-1.03994e+00	
576	5.692800e-04	-2.10841e+00	-1.05420e+00	

Index   time            v(nodea)        v(nodeb)        
--------------------------------------------------------------------------------
577	5.702800e-04	-2.13685e+00	-1.06843e+00	
578	5.712800e-04	-2.16521e+00	-1.08261e+00	
579	5.722800e-04	-2.19349e+00	-1.09674e+00	
580	5.732800e-04	-2.22167e+00	-1.11084e+00	
581	5.742800e-04	-2.24978e+00	-1.12489e+00	
582	5.752800e-04	-2.27779e+00	-1.13889e+00	
583	5.762800e-04	-2.30571e+00	-1.15285e+00	
584	5.772800e-04	-2.33354e+00	-1.16677e+00	
585	5.782800e-04	-2.36128e+00	-1.18064e+00	
586	5.792800e-04	-2.38892e+00	-1.19446e+00	
587	5.802800e-04	-2.41647e+00	-1.20824e+00	
588	5.812800e-04	-2.44393e+00	-1.22196e+00	
589	5.822800e-04	-2.47129e+00	-1.23564e+00	
590	5.832800e-04	-2.49855e+00	-1.24927e+00	
591	5.842800e-04	-2.52571e+00	-1.26286e+00	
592	5.852800e-04	-2.55277e+00	-1.27639e+00	
593	5.862800e-04	-2.57974e+00	-1.28987e+00	
594	5.872800e-04	-2.60660e+00	-1.30330e+00	
595	5.882800e-04	-2.63335e+00	-1.31668e+00	
596	5.892800e-04	-2.66001e+00	-1.33000e+00	
597	5.902800e-04	-2.68656e+00	-1.34328e+00	
598	5.912800e-04	-2.71300e+00	-1.35650e+00	
599	5.922800e-04	-2.73933e+00	-1.36967e+00	
600	5.932800e-04	-2.76556e+00	-1.38278e+00	
601	5.942800e-04	-2.79168e+00	-1.39584e+00	
602	5.952800e-04	-2.81769e+00	-1.40884e+00	
603	5.962800e-04	-2.84358e+00	-1.42179e+00	
604	5.972800e-04	-2.86937e+00	-1.43468e+00	
605	5.982800e-04	-2.89504e+00	-1.44752e+00	
606	5.992800e-04	-2.92060e+00	-1.46030e+00	
607	6.002800e-04	-2.94604e+00	-1.47302e+00	
608	6.012800e-04	-2.97136e+00	-1.48568e+00	
609	6.022800e-04	-2.99657e+00	-1.49829e+00	
610	6.032800e-04	-3.02166e+00	-1.51083e+00	
611	6.042800e-04	-3.04663e+00	-1.52332e+00	
612	6.052800e-04	-3.07148e+00	-1.53574e+00	
613	6.062800e-04	-3.09621e+00	-1.54810e+00	
614	6.072800e-04	-3.12082e+00	-1.56041e+00	
615	6.082800e-04	-3.14530e+00	-1.57265e+00	
616	6.092800e-04	-3.16966e+00	-1.58483e+00	
617	6.102800e-04	-3.19389e+00	-1.59695e+00	
618	6.112800e-04	-3.21800e+00	-1.60900e+00	
619	6.122800e-04	-3.24198e+00	-1.62099e+00	
620	6.132800e-04	-3.26583e+00	-1.63292e+00	
621	6.142800e-04	-3.28956e+00	-1.64478e+00	
622	6.152800e-04	-3.31315e+00	-1.65658e+00	
623	6.162800e-04	-3.33662e+00	-1.66831e+00	
624	6.172800e-04	-3.35995e+00	-1.67997e+00	
625	6.182800e-04	-3.38315e+00	-1.69157e+00	
626	6.192800e-04	-3.40621e+00	-1.70311e+00	
627	6.202800e-04	-3.42914e+00	-1.71457e+00	
628	6.212800e-04	-3.45194e+00	-1.72597e+00	
629	6.222800e-04	-3.47460e+00	-1.73730e+00	
630	6.232800e-04	-3.49712e+00	-1.74856e+00	
631	6.242800e-04	-3.51950e+00	-1.75975e+00	
632	6.252800e-04	-3.54175e+00	-1.77087e+00	
633	6.262800e-04	-3.56385e+00	-1.78193e+00	
634	6.272800e-04	-3.58582e+00	-1.79291e+00	

Index   time            v(nodea)        v(nodeb)        
--------------------------------------------------------------------------------
635	6.282800e-04	-3.60764e+00	-1.80382e+00	
636	6.292800e-04	-3.62932e+00	-1.81466e+00	
637	6.302800e-04	-3.65086e+00	-1.82543e+00	
638	6.312800e-04	-3.67225e+00	-1.83613e+00	
639	6.322800e-04	-3.69350e+00	-1.84675e+00	
640	6.332800e-04	-3.71460e+00	-1.85730e+00	
641	6.342800e-04	-3.73556e+00	-1.86778e+00	
642	6.352800e-04	-3.75637e+00	-1.87818e+00	
643	6.362800e-04	-3.77703e+00	-1.88851e+00	
644	6.372800e-04	-3.79754e+00	-1.89877e+00	
645	6.382800e-04	-3.81790e+00	-1.90895e+00	
646	6.392800e-04	-3.83811e+00	-1.91905e+00	
647	6.402800e-04	-3.85817e+00	-1.92908e+00	
648	6.412800e-04	-3.87807e+00	-1.93904e+00	
649	6.422800e-04	-3.89783e+00	-1.94891e+00	
650	6.432800e-04	-3.91743e+00	-1.95871e+00	
651	6.442800e-04	-3.93687e+00	-1.96844e+00	
652	6.452800e-04	-3.95616e+00	-1.97808e+00	
653	6.462800e-04	-3.97529e+00	-1.98765e+00	
654	6.472800e-04	-3.99427e+00	-1.99713e+00	
655	6.482800e-04	-4.01309e+00	-2.00654e+00	
656	6.492800e-04	-4.03175e+00	-2.01587e+00	
657	6.502800e-04	-4.05025e+00	-2.02512e+00	
658	6.512800e-04	-4.06859e+00	-2.03430e+00	
659	6.522800e-04	-4.08677e+00	-2.04339e+00	
660	6.532800e-04	-4.10479e+00	-2.05239e+00	
661	6.542800e-04	-4.12265e+00	-2.06132e+00	
662	6.552800e-04	-4.14034e+00	-2.07017e+00	
663	6.562800e-04	-4.15787e+00	-2.07894e+00	
664	6.572800e-04	-4.17524e+00	-2.08762e+00	
665	6.582800e-04	-4.19244e+00	-2.09622e+00	
666	6.592800e-04	-4.20948e+00	-2.10474e+00	
667	6.602800e-04	-4.22635e+00	-2.11317e+00	
668	6.612800e-04	-4.24305e+00	-2.12152e+00	
669	6.622800e-04	-4.25959e+00	-2.12979e+00	
670	6.632800e-04	-4.27595e+00	-2.13798e+00	
671	6.642800e-04	-4.29215e+00	-2.14608e+00	
672	6.652800e-04	-4.30818e+00	-2.15409e+00	
673	6.662800e-04	-4.32404e+00	-2.16202e+00	
674	6.672800e-04	-4.33973e+00	-2.16986e+00	
675	6.682800e-04	-4.35525e+00	-2.17762e+00	
676	6.692800e-04	-4.37059e+00	-2.18530e+00	
677	6.702800e-04	-4.38576e+00	-2.19288e+00	
678	6.712800e-04	-4.40076e+00	-2.20038e+00	
679	6.722800e-04	-4.41559e+00	-2.20779e+00	
680	6.732800e-04	-4.43024e+00	-2.21512e+00	
681	6.742800e-04	-4.44472e+00	-2.22236e+00	
682	6.752800e-04	-4.45902e+00	-2.22951e+00	
683	6.762800e-04	-4.47314e+00	-2.23657e+00	
684	6.772800e-04	-4.48709e+00	-2.24355e+00	
685	6.782800e-04	-4.50086e+00	-2.25043e+00	
686	6.792800e-04	-4.51446e+00	-2.25723e+00	
687	6.802800e-04	-4.52787e+00	-2.26394e+00	
688	6.812800e-04	-4.54111e+00	-2.27056e+00	
689	6.822800e-04	-4.55417e+00	-2.27708e+00	
690	6.832800e-04	-4.56705e+00	-2.28352e+00	
691	6.842800e-04	-4.57974e+00	-2.28987e+00	
692	6.852800e-04	-4.59226e+00	-2.29613e+00	

Index   time            v(nodea)        v(nodeb)        
--------------------------------------------------------------------------------
693	6.862800e-04	-4.60459e+00	-2.30230e+00	
694	6.872800e-04	-4.61675e+00	-2.30837e+00	
695	6.882800e-04	-4.62872e+00	-2.31436e+00	
696	6.892800e-04	-4.64051e+00	-2.32025e+00	
697	6.902800e-04	-4.65211e+00	-2.32606e+00	
698	6.912800e-04	-4.66354e+00	-2.33177e+00	
699	6.922800e-04	-4.67477e+00	-2.33739e+00	
700	6.932800e-04	-4.68583e+00	-2.34291e+00	
701	6.942800e-04	-4.69669e+00	-2.34835e+00	
702	6.952800e-04	-4.70738e+00	-2.35369e+00	
703	6.962800e-04	-4.71787e+00	-2.35894e+00	
704	6.972800e-04	-4.72818e+00	-2.36409e+00	
705	6.982800e-04	-4.73831e+00	-2.36915e+00	
706	6.992800e-04	-4.74824e+00	-2.37412e+00	
707	7.002800e-04	-4.75799e+00	-2.37900e+00	
708	7.012800e-04	-4.76755e+00	-2.38378e+00	
709	7.022800e-04	-4.77693e+00	-2.38846e+00	
710	7.032800e-04	-4.78611e+00	-2.39306e+00	
711	7.042800e-04	-4.79511e+00	-2.39755e+00	
712	7.052800e-04	-4.80392e+00	-2.40196e+00	
713	7.062800e-04	-4.81253e+00	-2.40627e+00	
714	7.072800e-04	-4.82096e+00	-2.41048e+00	
715	7.082800e-04	-4.82920e+00	-2.41460e+00	
716	7.092800e-04	-4.83724e+00	-2.41862e+00	
717	7.102800e-04	-4.84510e+00	-2.42255e+00	
718	7.112800e-04	-4.85276e+00	-2.42638e+00	
719	7.122800e-04	-4.86023e+00	-2.43012e+00	
720	7.132800e-04	-4.86751e+00	-2.43376e+00	
721	7.142800e-04	-4.87460e+00	-2.43730e+00	
722	7.152800e-04	-4.88150e+00	-2.44075e+00	
723	7.162800e-04	-4.88820e+00	-2.44410e+00	
724	7.172800e-04	-4.89471e+00	-2.44735e+00	
725	7.182800e-04	-4.90102e+00	-2.45051e+00	
726	7.192800e-04	-4.90715e+00	-2.45357e+00	
727	7.202800e-04	-4.91308e+00	-2.45654e+00	
728	7.212800e-04	-4.91881e+00	-2.45941e+00	
729	7.222800e-04	-4.92435e+00	-2.46218e+00	
730	7.232800e-04	-4.92970e+00	-2.46485e+00	
731	7.242800e-04	-4.93485e+00	-2.46743e+00	
732	7.252800e-04	-4.93981e+00	-2.46991e+00	
733	7.262800e-04	-4.94457e+00	-2.47229e+00	
734	7.272800e-04	-4.94914e+00	-2.47457e+00	
735	7.282800e-04	-4.95351e+00	-2.47676e+00	
736	7.292800e-04	-4.95769e+00	-2.47884e+00	
737	7.302800e-04	-4.96167e+00	-2.48083e+00	
738	7.312800e-04	-4.96545e+00	-2.48273e+00	
739	7.322800e-04	-4.96904e+00	-2.48452e+00	
740	7.332800e-04	-4.97243e+00	-2.48622e+00	
741	7.342800e-04	-4.97563e+00	-2.48782e+00	
742	7.352800e-04	-4.97863e+00	-2.48931e+00	
743	7.362800e-04	-4.98143e+00	-2.49072e+00	
744	7.372800e-04	-4.98404e+00	-2.49202e+00	
745	7.382800e-04	-4.98645e+00	-2.49322e+00	
746	7.392800e-04	-4.98866e+00	-2.49433e+00	
747	7.402800e-04	-4.99068e+00	-2.49534e+00	
748	7.412800e-04	-4.99250e+00	-2.49625e+00	
749	7.422800e-04	-4.99412e+00	-2.49706e+00	
750	7.432800e-04	-4.99554e+00	-2.49777e+00	

Index   time            v(nodea)        v(nodeb)        
--------------------------------------------------------------------------------
751	7.442800e-04	-4.99677e+00	-2.49839e+00	
752	7.452800e-04	-4.99780e+00	-2.49890e+00	
753	7.462800e-04	-4.99863e+00	-2.49932e+00	
754	7.472800e-04	-4.99927e+00	-2.49963e+00	
755	7.482800e-04	-4.99971e+00	-2.49985e+00	
756	7.492800e-04	-4.99995e+00	-2.49997e+00	
757	7.502800e-04	-4.99999e+00	-2.50000e+00	
758	7.512800e-04	-4.99984e+00	-2.49992e+00	
759	7.522800e-04	-4.99949e+00	-2.49974e+00	
760	7.532800e-04	-4.99894e+00	-2.49947e+00	
761	7.542800e-04	-4.99819e+00	-2.49910e+00	
762	7.552800e-04	-4.99725e+00	-2.49862e+00	
763	7.562800e-04	-4.99611e+00	-2.49805e+00	
764	7.572800e-04	-4.99477e+00	-2.49739e+00	
765	7.582800e-04	-4.99324e+00	-2.49662e+00	
766	7.592800e-04	-4.99150e+00	-2.49575e+00	
767	7.602800e-04	-4.98957e+00	-2.49479e+00	
768	7.612800e-04	-4.98745e+00	-2.49372e+00	
769	7.622800e-04	-4.98512e+00	-2.49256e+00	
770	7.632800e-04	-4.98260e+00	-2.49130e+00	
771	7.642800e-04	-4.97989e+00	-2.48994e+00	
772	7.652800e-04	-4.97697e+00	-2.48849e+00	
773	7.662800e-04	-4.97386e+00	-2.48693e+00	
774	7.672800e-04	-4.97056e+00	-2.48528e+00	
775	7.682800e-04	-4.96706e+00	-2.48353e+00	
776	7.692800e-04	-4.96336e+00	-2.48168e+00	
777	7.702800e-04	-4.95946e+00	-2.47973e+00	
778	7.712800e-04	-4.95537e+00	-2.47769e+00	
779	7.722800e-04	-4.95109e+00	-2.47554e+00	
780	7.732800e-04	-4.94661e+00	-2.47330e+00	
781	7.742800e-04	-4.94193e+00	-2.47096e+00	
782	7.752800e-04	-4.93706e+00	-2.46853e+00	
783	7.762800e-04	-4.93199e+00	-2.46600e+00	
784	7.772800e-04	-4.92673e+00	-2.46337e+00	
785	7.782800e-04	-4.92127e+00	-2.46064e+00	
786	7.792800e-04	-4.91562e+00	-2.45781e+00	
787	7.802800e-04	-4.90978e+00	-2.45489e+00	
788	7.812800e-04	-4.90374e+00	-2.45187e+00	
789	7.822800e-04	-4.89751e+00	-2.44876e+00	
790	7.832800e-04	-4.89109e+00	-2.44554e+00	
791	7.842800e-04	-4.88447e+00	-2.44223e+00	
792	7.852800e-04	-4.87766e+00	-2.43883e+00	
793	7.862800e-04	-4.87065e+00	-2.43533e+00	
794	7.872800e-04	-4.86346e+00	-2.43173e+00	
795	7.882800e-04	-4.85607e+00	-2.42804e+00	
796	7.892800e-04	-4.84849e+00	-2.42425e+00	
797	7.902800e-04	-4.84072e+00	-2.42036e+00	
798	7.912800e-04	-4.83276e+00	-2.41638e+00	
799	7.922800e-04	-4.82461e+00	-2.41230e+00	
800	7.932800e-04	-4.81626e+00	-2.40813e+00	
801	7.942800e-04	-4.80773e+00	-2.40386e+00	
802	7.952800e-04	-4.79901e+00	-2.39950e+00	
803	7.962800e-04	-4.79009e+00	-2.39505e+00	
804	7.972800e-04	-4.78099e+00	-2.39050e+00	
805	7.982800e-04	-4.77170e+00	-2.38585e+00	
806	7.992800e-04	-4.76222e+00	-2.38111e+00	
807	8.002800e-04	-4.75256e+00	-2.37628e+00	
808	8.012800e-04	-4.74270e+00	-2.37135e+00	

Index   time            v(nodea)        v(nodeb)        
--------------------------------------------------------------------------------
809	8.022800e-04	-4.73266e+00	-2.36633e+00	
810	8.032800e-04	-4.72243e+00	-2.36122e+00	
811	8.042800e-04	-4.71202e+00	-2.35601e+00	
812	8.052800e-04	-4.70142e+00	-2.35071e+00	
813	8.062800e-04	-4.69063e+00	-2.34532e+00	
814	8.072800e-04	-4.67966e+00	-2.33983e+00	
815	8.082800e-04	-4.66850e+00	-2.33425e+00	
816	8.092800e-04	-4.65716e+00	-2.32858e+00	
817	8.102800e-04	-4.64564e+00	-2.32282e+00	
818	8.112800e-04	-4.63393e+00	-2.31696e+00	
819	8.122800e-04	-4.62204e+00	-2.31102e+00	
820	8.132800e-04	-4.60996e+00	-2.30498e+00	
821	8.142800e-04	-4.59771e+00	-2.29885e+00	
822	8.152800e-04	-4.58527e+00	-2.29264e+00	
823	8.162800e-04	-4.57265e+00	-2.28633e+00	
824	8.172800e-04	-4.55986e+00	-2.27993e+00	
825	8.182800e-04	-4.54688e+00	-2.27344e+00	
826	8.192800e-04	-4.53372e+00	-2.26686e+00	
827	8.202800e-04	-4.52038e+00	-2.26019e+00	
828	8.212800e-04	-4.50687e+00	-2.25343e+00	
829	8.222800e-04	-4.49317e+00	-2.24659e+00	
830	8.232800e-04	-4.47930e+00	-2.23965e+00	
831	8.242800e-04	-4.46526e+00	-2.23263e+00	
832	8.252800e-04	-4.45103e+00	-2.22552e+00	
833	8.262800e-04	-4.43663e+00	-2.21832e+00	
834	8.272800e-04	-4.42206e+00	-2.21103e+00	
835	8.282800e-04	-4.40731e+00	-2.20365e+00	
836	8.292800e-04	-4.39239e+00	-2.19619e+00	
837	8.302800e-04	-4.37729e+00	-2.18864e+00	
838	8.312800e-04	-4.36202e+00	-2.18101e+00	
839	8.322800e-04	-4.34658e+00	-2.17329e+00	
840	8.332800e-04	-4.33096e+00	-2.16548e+00	
841	8.342800e-04	-4.31518e+00	-2.15759e+00	
842	8.352800e-04	-4.29923e+00	-2.14961e+00	
843	8.362800e-04	-4.28310e+00	-2.14155e+00	
844	8.372800e-04	-4.26681e+00	-2.13340e+00	
845	8.382800e-04	-4.25035e+00	-2.12517e+00	
846	8.392800e-04	-4.23372e+00	-2.11686e+00	
847	8.402800e-04	-4.21692e+00	-2.10846e+00	
848	8.412800e-04	-4.19996e+00	-2.09998e+00	
849	8.422800e-04	-4.18283e+00	-2.09141e+00	
850	8.432800e-04	-4.16553e+00	-2.08277e+00	
851	8.442800e-04	-4.14807e+00	-2.07404e+00	
852	8.452800e-04	-4.13045e+00	-2.06523e+00	
853	8.462800e-04	-4.11267e+00	-2.05633e+00	
854	8.472800e-04	-4.09472e+00	-2.04736e+00	
855	8.482800e-04	-4.07661e+00	-2.03830e+00	
856	8.492800e-04	-4.05834e+00	-2.02917e+00	
857	8.502800e-04	-4.03991e+00	-2.01995e+00	
858	8.512800e-04	-4.02132e+00	-2.01066e+00	
859	8.522800e-04	-4.00257e+00	-2.00128e+00	
860	8.532800e-04	-3.98366e+00	-1.99183e+00	
861	8.542800e-04	-3.96460e+00	-1.98230e+00	
862	8.552800e-04	-3.94538e+00	-1.97269e+00	
863	8.562800e-04	-3.92600e+00	-1.96300e+00	
864	8.572800e-04	-3.90647e+00	-1.95323e+00	
865	8.582800e-04	-3.88678e+00	-1.94339e+00	
866	8.592800e-04	-3.86694e+00	-1.93347e+00	

Index   time            v(nodea)        v(nodeb)        
--------------------------------------------------------------------------------
867	8.602800e-04	-3.84695e+00	-1.92348e+00	
868	8.612800e-04	-3.82681e+00	-1.91340e+00	
869	8.622800e-04	-3.80651e+00	-1.90326e+00	
870	8.632800e-04	-3.78607e+00	-1.89303e+00	
871	8.642800e-04	-3.76548e+00	-1.88274e+00	
872	8.652800e-04	-3.74473e+00	-1.87237e+00	
873	8.662800e-04	-3.72384e+00	-1.86192e+00	
874	8.672800e-04	-3.70280e+00	-1.85140e+00	
875	8.682800e-04	-3.68162e+00	-1.84081e+00	
876	8.692800e-04	-3.66029e+00	-1.83014e+00	
877	8.702800e-04	-3.63882e+00	-1.81941e+00	
878	8.712800e-04	-3.61720e+00	-1.80860e+00	
879	8.722800e-04	-3.59544e+00	-1.79772e+00	
880	8.732800e-04	-3.57354e+00	-1.78677e+00	
881	8.742800e-04	-3.55149e+00	-1.77575e+00	
882	8.752800e-04	-3.52931e+00	-1.76465e+00	
883	8.762800e-04	-3.50699e+00	-1.75349e+00	
884	8.772800e-04	-3.48452e+00	-1.74226e+00	
885	8.782800e-04	-3.46192e+00	-1.73096e+00	
886	8.792800e-04	-3.43919e+00	-1.71959e+00	
887	8.802800e-04	-3.41632e+00	-1.70816e+00	
888	8.812800e-04	-3.39331e+00	-1.69666e+00	
889	8.822800e-04	-3.37017e+00	-1.68509e+00	
890	8.832800e-04	-3.34690e+00	-1.67345e+00	
891	8.842800e-04	-3.32349e+00	-1.66175e+00	
892	8.852800e-04	-3.29996e+00	-1.64998e+00	
893	8.862800e-04	-3.27629e+00	-1.63814e+00	
894	8.872800e-04	-3.25249e+00	-1.62625e+00	
895	8.882800e-04	-3.22857e+00	-1.61428e+00	
896	8.892800e-04	-3.20452e+00	-1.60226e+00	
897	8.902800e-04	-3.18034e+00	-1.59017e+00	
898	8.912800e-04	-3.15603e+00	-1.57802e+00	
899	8.922800e-04	-3.13160e+00	-1.56580e+00	
900	8.932800e-04	-3.10705e+00	-1.55353e+00	
901	8.942800e-04	-3.08238e+00	-1.54119e+00	
902	8.952800e-04	-3.05758e+00	-1.52879e+00	
903	8.962800e-04	-3.03266e+00	-1.51633e+00	
904	8.972800e-04	-3.00763e+00	-1.50381e+00	
905	8.982800e-04	-2.98247e+00	-1.49123e+00	
906	8.992800e-04	-2.95720e+00	-1.47860e+00	
907	9.002800e-04	-2.93181e+00	-1.46590e+00	
908	9.012800e-04	-2.90630e+00	-1.45315e+00	
909	9.022800e-04	-2.88068e+00	-1.44034e+00	
910	9.032800e-04	-2.85494e+00	-1.42747e+00	
911	9.042800e-04	-2.82910e+00	-1.41455e+00	
912	9.052800e-04	-2.80314e+00	-1.40157e+00	
913	9.062800e-04	-2.77707e+00	-1.38853e+00	
914	9.072800e-04	-2.75089e+00	-1.37544e+00	
915	9.082800e-04	-2.72460e+00	-1.36230e+00	
916	9.092800e-04	-2.69820e+00	-1.34910e+00	
917	9.102800e-04	-2.67170e+00	-1.33585e+00	
918	9.112800e-04	-2.64510e+00	-1.32255e+00	
919	9.122800e-04	-2.61838e+00	-1.30919e+00	
920	9.132800e-04	-2.59157e+00	-1.29578e+00	
921	9.142800e-04	-2.56465e+00	-1.28233e+00	
922	9.152800e-04	-2.53763e+00	-1.26882e+00	
923	9.162800e-04	-2.51051e+00	-1.25526e+00	
924	9.172800e-04	-2.48329e+00	-1.24165e+00	

Index   time            v(nodea)        v(nodeb)        
--------------------------------------------------------------------------------
925	9.182800e-04	-2.45598e+00	-1.22799e+00	
926	9.192800e-04	-2.42857e+00	-1.21428e+00	
927	9.202800e-04	-2.40106e+00	-1.20053e+00	
928	9.212800e-04	-2.37345e+00	-1.18673e+00	
929	9.222800e-04	-2.34575e+00	-1.17288e+00	
930	9.232800e-04	-2.31796e+00	-1.15898e+00	
931	9.242800e-04	-2.29008e+00	-1.14504e+00	
932	9.252800e-04	-2.26211e+00	-1.13106e+00	
933	9.262800e-04	-2.23405e+00	-1.11702e+00	
934	9.272800e-04	-2.20590e+00	-1.10295e+00	
935	9.282800e-04	-2.17766e+00	-1.08883e+00	
936	9.292800e-04	-2.14934e+00	-1.07467e+00	
937	9.302800e-04	-2.12093e+00	-1.06047e+00	
938	9.312800e-04	-2.09244e+00	-1.04622e+00	
939	9.322800e-04	-2.06387e+00	-1.03193e+00	
940	9.332800e-04	-2.03521e+00	-1.01761e+00	
941	9.342800e-04	-2.00648e+00	-1.00324e+00	
942	9.352800e-04	-1.97766e+00	-9.88832e-01	
943	9.362800e-04	-1.94877e+00	-9.74385e-01	
944	9.372800e-04	-1.91980e+00	-9.59900e-01	
945	9.382800e-04	-1.89076e+00	-9.45378e-01	
946	9.392800e-04	-1.86163e+00	-9.30817e-01	
947	9.402800e-04	-1.83244e+00	-9.16221e-01	
948	9.412800e-04	-1.80318e+00	-9.01588e-01	
949	9.422800e-04	-1.77384e+00	-8.86919e-01	
950	9.432800e-04	-1.74443e+00	-8.72215e-01	
951	9.442800e-04	-1.71495e+00	-8.57477e-01	
952	9.452800e-04	-1.68541e+00	-8.42705e-01	
953	9.462800e-04	-1.65580e+00	-8.27900e-01	
954	9.472800e-04	-1.62612e+00	-8.13062e-01	
955	9.482800e-04	-1.59638e+00	-7.98192e-01	
956	9.492800e-04	-1.56658e+00	-7.83291e-01	
957	9.502800e-04	-1.53672e+00	-7.68358e-01	
958	9.512800e-04	-1.50679e+00	-7.53396e-01	
959	9.522800e-04	-1.47681e+00	-7.38403e-01	
960	9.532800e-04	-1.44676e+00	-7.23381e-01	
961	9.542800e-04	-1.41666e+00	-7.08331e-01	
962	9.552800e-04	-1.38651e+00	-6.93253e-01	
963	9.562800e-04	-1.35630e+00	-6.78148e-01	
964	9.572800e-04	-1.32603e+00	-6.63015e-01	
965	9.582800e-04	-1.29571e+00	-6.47857e-01	
966	9.592800e-04	-1.26535e+00	-6.32673e-01	
967	9.602800e-04	-1.23493e+00	-6.17464e-01	
968	9.612800e-04	-1.20446e+00	-6.02230e-01	
969	9.622800e-04	-1.17395e+00	-5.86973e-01	
970	9.632800e-04	-1.14339e+00	-5.71693e-01	
971	9.642800e-04	-1.11278e+00	-5.56390e-01	
972	9.652800e-04	-1.08213e+00	-5.41065e-01	
973	9.662800e-04	-1.05144e+00	-5.25719e-01	
974	9.672800e-04	-1.02070e+00	-5.10352e-01	
975	9.682800e-04	-9.89929e-01	-4.94965e-01	
976	9.692800e-04	-9.59116e-01	-4.79558e-01	
977	9.702800e-04	-9.28264e-01	-4.64132e-01	
978	9.712800e-04	-8.97377e-01	-4.48688e-01	
979	9.722800e-04	-8.66453e-01	-4.33227e-01	
980	9.732800e-04	-8.35496e-01	-4.17748e-01	
981	9.742800e-04	-8.04505e-01	-4.02253e-01	
982	9.752800e-04	-7.73483e-01	-3.86741e-01	

Index   time            v(nodea)        v(nodeb)        
--------------------------------------------------------------------------------
983	9.762800e-04	-7.42430e-01	-3.71215e-01	
984	9.772800e-04	-7.11348e-01	-3.55674e-01	
985	9.782800e-04	-6.80238e-01	-3.40119e-01	
986	9.792800e-04	-6.49101e-01	-3.24550e-01	
987	9.802800e-04	-6.17938e-01	-3.08969e-01	
988	9.812800e-04	-5.86751e-01	-2.93376e-01	
989	9.822800e-04	-5.55541e-01	-2.77770e-01	
990	9.832800e-04	-5.24309e-01	-2.62154e-01	
991	9.842800e-04	-4.93056e-01	-2.46528e-01	
992	9.852800e-04	-4.61783e-01	-2.30892e-01	
993	9.862800e-04	-4.30493e-01	-2.15246e-01	
994	9.872800e-04	-3.99185e-01	-1.99593e-01	
995	9.882800e-04	-3.67862e-01	-1.83931e-01	
996	9.892800e-04	-3.36524e-01	-1.68262e-01	
997	9.902800e-04	-3.05173e-01	-1.52587e-01	
998	9.912800e-04	-2.73810e-01	-1.36905e-01	
999	9.922800e-04	-2.42436e-01	-1.21218e-01	
1000	9.932800e-04	-2.11052e-01	-1.05526e-01	
1001	9.942800e-04	-1.79660e-01	-8.98302e-02	
1002	9.952800e-04	-1.48261e-01	-7.41307e-02	
1003	9.962800e-04	-1.16857e-01	-5.84283e-02	
1004	9.972800e-04	-8.54472e-02	-4.27236e-02	
1005	9.982800e-04	-5.40343e-02	-2.70172e-02	
1006	9.992800e-04	-2.26194e-02	-1.13097e-02	
1007	1.000280e-03	8.796455e-03	4.398227e-03	
1008	1.001280e-03	4.021195e-02	2.010598e-02	
1009	1.002280e-03	7.162586e-02	3.581293e-02	
1010	1.003280e-03	1.030369e-01	5.151847e-02	
1011	1.004280e-03	1.344440e-01	6.722198e-02	
1012	1.005280e-03	1.658457e-01	8.292283e-02	
1013	1.006280e-03	1.972408e-01	9.862041e-02	
1014	1.007280e-03	2.286282e-01	1.143141e-01	
1015	1.008280e-03	2.600065e-01	1.300033e-01	
1016	1.009280e-03	2.913746e-01	1.456873e-01	
1017	1.010280e-03	3.227312e-01	1.613656e-01	
1018	1.011280e-03	3.540750e-01	1.770375e-01	
1019	1.012280e-03	3.854049e-01	1.927025e-01	
1020	1.013280e-03	4.167196e-01	2.083598e-01	
1021	1.014280e-03	4.480177e-01	2.240089e-01	
1022	1.015280e-03	4.792983e-01	2.396491e-01	
1023	1.016280e-03	5.105598e-01	2.552799e-01	
1024	1.017280e-03	5.418013e-01	2.709006e-01	
1025	1.018280e-03	5.730213e-01	2.865107e-01	
1026	1.019280e-03	6.042187e-01	3.021094e-01	
1027	1.020280e-03	6.353923e-01	3.176961e-01	
1028	1.021280e-03	6.665408e-01	3.332704e-01	
1029	1.022280e-03	6.976629e-01	3.488315e-01	
1030	1.023280e-03	7.287576e-01	3.643788e-01	
1031	1.024280e-03	7.598234e-01	3.799117e-01	
1032	1.025280e-03	7.908593e-01	3.954296e-01	
1033	1.026280e-03	8.218639e-01	4.109320e-01	
1034	1.027280e-03	8.528361e-01	4.264180e-01	
1035	1.028280e-03	8.837746e-01	4.418873e-01	
1036	1.029280e-03	9.146782e-01	4.573391e-01	
1037	1.030280e-03	9.455458e-01	4.727729e-01	
1038	1.031280e-03	9.763760e-01	4.881880e-01	
1039	1.032280e-03	1.007168e+00	5.035838e-01	
1040	1.033280e-03	1.037919e+00	5.189597e-01	

Index   time            v(nodea)        v(nodeb)        
--------------------------------------------------------------------------------
1041	1.034280e-03	1.068630e+00	5.343152e-01	
1042	1.035280e-03	1.099299e+00	5.496496e-01	
1043	1.036280e-03	1.129924e+00	5.649622e-01	
1044	1.037280e-03	1.160505e+00	5.802526e-01	
1045	1.038280e-03	1.191040e+00	5.955200e-01	
1046	1.039280e-03	1.221528e+00	6.107640e-01	
1047	1.040280e-03	1.251968e+00	6.259838e-01	
1048	1.041280e-03	1.282358e+00	6.411789e-01	
1049	1.042280e-03	1.312697e+00	6.563487e-01	
1050	1.043280e-03	1.342985e+00	6.714926e-01	
1051	1.044280e-03	1.373220e+00	6.866100e-01	
1052	1.045280e-03	1.403401e+00	7.017003e-01	
1053	1.046280e-03	1.433526e+00	7.167629e-01	
1054	1.047280e-03	1.463594e+00	7.317971e-01	
1055	1.048280e-03	1.493605e+00	7.468025e-01	
1056	1.049280e-03	1.523557e+00	7.617784e-01	
1057	1.050280e-03	1.553449e+00	7.767243e-01	
1058	1.051280e-03	1.583279e+00	7.916394e-01	
1059	1.052280e-03	1.613047e+00	8.065233e-01	
1060	1.053280e-03	1.642751e+00	8.213754e-01	
1061	1.054280e-03	1.672390e+00	8.361951e-01	
1062	1.055280e-03	1.701963e+00	8.509817e-01	
1063	1.056280e-03	1.731469e+00	8.657347e-01	
1064	1.057280e-03	1.760907e+00	8.804536e-01	
1065	1.058280e-03	1.790275e+00	8.951377e-01	
1066	1.059280e-03	1.819573e+00	9.097865e-01	
1067	1.060280e-03	1.848799e+00	9.243993e-01	
1068	1.061280e-03	1.877951e+00	9.389757e-01	
1069	1.062280e-03	1.907030e+00	9.535150e-01	
1070	1.063280e-03	1.936033e+00	9.680166e-01	
1071	1.064280e-03	1.964960e+00	9.824800e-01	
1072	1.065280e-03	1.993809e+00	9.969047e-01	
1073	1.066280e-03	2.022580e+00	1.011290e+00	
1074	1.067280e-03	2.051271e+00	1.025635e+00	
1075	1.068280e-03	2.079880e+00	1.039940e+00	
1076	1.069280e-03	2.108408e+00	1.054204e+00	
1077	1.070280e-03	2.136852e+00	1.068426e+00	
1078	1.071280e-03	2.165212e+00	1.082606e+00	
1079	1.072280e-03	2.193487e+00	1.096744e+00	
1080	1.073280e-03	2.221675e+00	1.110837e+00	
1081	1.074280e-03	2.249775e+00	1.124888e+00	
1082	1.075280e-03	2.277787e+00	1.138893e+00	
1083	1.076280e-03	2.305708e+00	1.152854e+00	
1084	1.077280e-03	2.333539e+00	1.166769e+00	
1085	1.078280e-03	2.361277e+00	1.180639e+00	
1086	1.079280e-03	2.388922e+00	1.194461e+00	
1087	1.080280e-03	2.416473e+00	1.208237e+00	
1088	1.081280e-03	2.443928e+00	1.221964e+00	
1089	1.082280e-03	2.471287e+00	1.235644e+00	
1090	1.083280e-03	2.498549e+00	1.249274e+00	
1091	1.084280e-03	2.525712e+00	1.262856e+00	
1092	1.085280e-03	2.552775e+00	1.276387e+00	
1093	1.086280e-03	2.579737e+00	1.289868e+00	
1094	1.087280e-03	2.606597e+00	1.303299e+00	
1095	1.088280e-03	2.633355e+00	1.316677e+00	
1096	1.089280e-03	2.660008e+00	1.330004e+00	
1097	1.090280e-03	2.686557e+00	1.343278e+00	
1098	1.091280e-03	2.712999e+00	1.356500e+00	

Index   time            v(nodea)        v(nodeb)        
--------------------------------------------------------------------------------
1099	1.092280e-03	2.739335e+00	1.369667e+00	
1100	1.093280e-03	2.765562e+00	1.382781e+00	
1101	1.094280e-03	2.791680e+00	1.395840e+00	
1102	1.095280e-03	2.817688e+00	1.408844e+00	
1103	1.096280e-03	2.843585e+00	1.421792e+00	
1104	1.097280e-03	2.869369e+00	1.434684e+00	
1105	1.098280e-03	2.895040e+00	1.447520e+00	
1106	1.099280e-03	2.920597e+00	1.460298e+00	
1107	1.100280e-03	2.946038e+00	1.473019e+00	
1108	1.101280e-03	2.971363e+00	1.485682e+00	
1109	1.102280e-03	2.996571e+00	1.498286e+00	
1110	1.103280e-03	3.021661e+00	1.510830e+00	
1111	1.104280e-03	3.046631e+00	1.523316e+00	
1112	1.105280e-03	3.071481e+00	1.535741e+00	
1113	1.106280e-03	3.096210e+00	1.548105e+00	
1114	1.107280e-03	3.120816e+00	1.560408e+00	
1115	1.108280e-03	3.145300e+00	1.572650e+00	
1116	1.109280e-03	3.169659e+00	1.584829e+00	
1117	1.110280e-03	3.193893e+00	1.596946e+00	
1118	1.111280e-03	3.218001e+00	1.609000e+00	
1119	1.112280e-03	3.241982e+00	1.620991e+00	
1120	1.113280e-03	3.265834e+00	1.632917e+00	
1121	1.114280e-03	3.289558e+00	1.644779e+00	
1122	1.115280e-03	3.313153e+00	1.656576e+00	
1123	1.116280e-03	3.336616e+00	1.668308e+00	
1124	1.117280e-03	3.359947e+00	1.679974e+00	
1125	1.118280e-03	3.383146e+00	1.691573e+00	
1126	1.119280e-03	3.406212e+00	1.703106e+00	
1127	1.120280e-03	3.429143e+00	1.714571e+00	
1128	1.121280e-03	3.451938e+00	1.725969e+00	
1129	1.122280e-03	3.474597e+00	1.737299e+00	
1130	1.123280e-03	3.497119e+00	1.748560e+00	
1131	1.124280e-03	3.519503e+00	1.759752e+00	
1132	1.125280e-03	3.541748e+00	1.770874e+00	
1133	1.126280e-03	3.563854e+00	1.781927e+00	
1134	1.127280e-03	3.585818e+00	1.792909e+00	
1135	1.128280e-03	3.607641e+00	1.803821e+00	
1136	1.129280e-03	3.629322e+00	1.814661e+00	
1137	1.130280e-03	3.650859e+00	1.825430e+00	
1138	1.131280e-03	3.672252e+00	1.836126e+00	
1139	1.132280e-03	3.693500e+00	1.846750e+00	
1140	1.133280e-03	3.714603e+00	1.857301e+00	
1141	1.134280e-03	3.735558e+00	1.867779e+00	
1142	1.135280e-03	3.756367e+00	1.878183e+00	
1143	1.136280e-03	3.777027e+00	1.888513e+00	
1144	1.137280e-03	3.797538e+00	1.898769e+00	
1145	1.138280e-03	3.817898e+00	1.908949e+00	
1146	1.139280e-03	3.838109e+00	1.919054e+00	
1147	1.140280e-03	3.858167e+00	1.929084e+00	
1148	1.141280e-03	3.878074e+00	1.939037e+00	
1149	1.142280e-03	3.897827e+00	1.948913e+00	
1150	1.143280e-03	3.917426e+00	1.958713e+00	
1151	1.144280e-03	3.936871e+00	1.968436e+00	
1152	1.145280e-03	3.956160e+00	1.978080e+00	
1153	1.146280e-03	3.975293e+00	1.987647e+00	
1154	1.147280e-03	3.994270e+00	1.997135e+00	
1155	1.148280e-03	4.013088e+00	2.006544e+00	
1156	1.149280e-03	4.031748e+00	2.015874e+00	

Index   time            v(nodea)        v(nodeb)        
--------------------------------------------------------------------------------
1157	1.150280e-03	4.050249e+00	2.025125e+00	
1158	1.151280e-03	4.068590e+00	2.034295e+00	
1159	1.152280e-03	4.086771e+00	2.043385e+00	
1160	1.153280e-03	4.104790e+00	2.052395e+00	
1161	1.154280e-03	4.122647e+00	2.061323e+00	
1162	1.155280e-03	4.140341e+00	2.070170e+00	
1163	1.156280e-03	4.157872e+00	2.078936e+00	
1164	1.157280e-03	4.175238e+00	2.087619e+00	
1165	1.158280e-03	4.192440e+00	2.096220e+00	
1166	1.159280e-03	4.209476e+00	2.104738e+00	
1167	1.160280e-03	4.226346e+00	2.113173e+00	
1168	1.161280e-03	4.243050e+00	2.121525e+00	
1169	1.162280e-03	4.259585e+00	2.129793e+00	
1170	1.163280e-03	4.275953e+00	2.137977e+00	
1171	1.164280e-03	4.292152e+00	2.146076e+00	
1172	1.165280e-03	4.308181e+00	2.154091e+00	
1173	1.166280e-03	4.324040e+00	2.162020e+00	
1174	1.167280e-03	4.339729e+00	2.169865e+00	
1175	1.168280e-03	4.355246e+00	2.177623e+00	
1176	1.169280e-03	4.370592e+00	2.185296e+00	
1177	1.170280e-03	4.385764e+00	2.192882e+00	
1178	1.171280e-03	4.400764e+00	2.200382e+00	
1179	1.172280e-03	4.415590e+00	2.207795e+00	
1180	1.173280e-03	4.430241e+00	2.215121e+00	
1181	1.174280e-03	4.444718e+00	2.222359e+00	
1182	1.175280e-03	4.459019e+00	2.229510e+00	
1183	1.176280e-03	4.473144e+00	2.236572e+00	
1184	1.177280e-03	4.487093e+00	2.243546e+00	
1185	1.178280e-03	4.500864e+00	2.250432e+00	
1186	1.179280e-03	4.514458e+00	2.257229e+00	
1187	1.180280e-03	4.527874e+00	2.263937e+00	
1188	1.181280e-03	4.541110e+00	2.270555e+00	
1189	1.182280e-03	4.554168e+00	2.277084e+00	
1190	1.183280e-03	4.567046e+00	2.283523e+00	
1191	1.184280e-03	4.579743e+00	2.289871e+00	
1192	1.185280e-03	4.592260e+00	2.296130e+00	
1193	1.186280e-03	4.604595e+00	2.302297e+00	
1194	1.187280e-03	4.616748e+00	2.308374e+00	
1195	1.188280e-03	4.628720e+00	2.314360e+00	
1196	1.189280e-03	4.640508e+00	2.320254e+00	
1197	1.190280e-03	4.652113e+00	2.326057e+00	
1198	1.191280e-03	4.663535e+00	2.331768e+00	
1199	1.192280e-03	4.674773e+00	2.337386e+00	
1200	1.193280e-03	4.685826e+00	2.342913e+00	
1201	1.194280e-03	4.696694e+00	2.348347e+00	
1202	1.195280e-03	4.707376e+00	2.353688e+00	
1203	1.196280e-03	4.717873e+00	2.358937e+00	
1204	1.197280e-03	4.728184e+00	2.364092e+00	
1205	1.198280e-03	4.738307e+00	2.369154e+00	
1206	1.199280e-03	4.748244e+00	2.374122e+00	
1207	1.200280e-03	4.757993e+00	2.378997e+00	
1208	1.201280e-03	4.767555e+00	2.383777e+00	
1209	1.202280e-03	4.776928e+00	2.388464e+00	
1210	1.203280e-03	4.786113e+00	2.393056e+00	
1211	1.204280e-03	4.795109e+00	2.397554e+00	
1212	1.205280e-03	4.803915e+00	2.401958e+00	
1213	1.206280e-03	4.812532e+00	2.406266e+00	
1214	1.207280e-03	4.820959e+00	2.410479e+00	

Index   time            v(nodea)        v(nodeb)        
--------------------------------------------------------------------------------
1215	1.208280e-03	4.829195e+00	2.414598e+00	
1216	1.209280e-03	4.837241e+00	2.418621e+00	
1217	1.210280e-03	4.845096e+00	2.422548e+00	
1218	1.211280e-03	4.852759e+00	2.426380e+00	
1219	1.212280e-03	4.860231e+00	2.430116e+00	
1220	1.213280e-03	4.867512e+00	2.433756e+00	
1221	1.214280e-03	4.874600e+00	2.437300e+00	
1222	1.215280e-03	4.881495e+00	2.440748e+00	
1223	1.216280e-03	4.888198e+00	2.444099e+00	
1224	1.217280e-03	4.894708e+00	2.447354e+00	
1225	1.218280e-03	4.901024e+00	2.450512e+00	
1226	1.219280e-03	4.907148e+00	2.453574e+00	
1227	1.220280e-03	4.913077e+00	2.456538e+00	
1228	1.221280e-03	4.918812e+00	2.459406e+00	
1229	1.222280e-03	4.924354e+00	2.462177e+00	
1230	1.223280e-03	4.929700e+00	2.464850e+00	
1231	1.224280e-03	4.934853e+00	2.467426e+00	
1232	1.225280e-03	4.939810e+00	2.469905e+00	
1233	1.226280e-03	4.944573e+00	2.472286e+00	
1234	1.227280e-03	4.949140e+00	2.474570e+00	
1235	1.228280e-03	4.953512e+00	2.476756e+00	
1236	1.229280e-03	4.957688e+00	2.478844e+00	
1237	1.230280e-03	4.961668e+00	2.480834e+00	
1238	1.231280e-03	4.965453e+00	2.482726e+00	
1239	1.232280e-03	4.969042e+00	2.484521e+00	
1240	1.233280e-03	4.972434e+00	2.486217e+00	
1241	1.234280e-03	4.975630e+00	2.487815e+00	
1242	1.235280e-03	4.978630e+00	2.489315e+00	
1243	1.236280e-03	4.981433e+00	2.490717e+00	
1244	1.237280e-03	4.984040e+00	2.492020e+00	
1245	1.238280e-03	4.986449e+00	2.493225e+00	
1246	1.239280e-03	4.988662e+00	2.494331e+00	
1247	1.240280e-03	4.990678e+00	2.495339e+00	
1248	1.241280e-03	4.992497e+00	2.496249e+00	
1249	1.242280e-03	4.994119e+00	2.497060e+00	
1250	1.243280e-03	4.995544e+00	2.497772e+00	
1251	1.244280e-03	4.996771e+00	2.498386e+00	
1252	1.245280e-03	4.997801e+00	2.498901e+00	
1253	1.246280e-03	4.998634e+00	2.499317e+00	
1254	1.247280e-03	4.999270e+00	2.499635e+00	
1255	1.248280e-03	4.999708e+00	2.499854e+00	
1256	1.249280e-03	4.999949e+00	2.499974e+00	
1257	1.250280e-03	4.999992e+00	2.499996e+00	
1258	1.251280e-03	4.999838e+00	2.499919e+00	
1259	1.252280e-03	4.999487e+00	2.499743e+00	
1260	1.253280e-03	4.998938e+00	2.499469e+00	
1261	1.254280e-03	4.998192e+00	2.499096e+00	
1262	1.255280e-03	4.997249e+00	2.498624e+00	
1263	1.256280e-03	4.996108e+00	2.498054e+00	
1264	1.257280e-03	4.994770e+00	2.497385e+00	
1265	1.258280e-03	4.993235e+00	2.496618e+00	
1266	1.259280e-03	4.991503e+00	2.495751e+00	
1267	1.260280e-03	4.989574e+00	2.494787e+00	
1268	1.261280e-03	4.987447e+00	2.493724e+00	
1269	1.262280e-03	4.985124e+00	2.492562e+00	
1270	1.263280e-03	4.982604e+00	2.491302e+00	
1271	1.264280e-03	4.979888e+00	2.489944e+00	
1272	1.265280e-03	4.976974e+00	2.488487e+00	

Index   time            v(nodea)        v(nodeb)        
--------------------------------------------------------------------------------
1273	1.266280e-03	4.973865e+00	2.486932e+00	
1274	1.267280e-03	4.970558e+00	2.485279e+00	
1275	1.268280e-03	4.967056e+00	2.483528e+00	
1276	1.269280e-03	4.963358e+00	2.481679e+00	
1277	1.270280e-03	4.959463e+00	2.479732e+00	
1278	1.271280e-03	4.955373e+00	2.477687e+00	
1279	1.272280e-03	4.951087e+00	2.475544e+00	
1280	1.273280e-03	4.946606e+00	2.473303e+00	
1281	1.274280e-03	4.941930e+00	2.470965e+00	
1282	1.275280e-03	4.937058e+00	2.468529e+00	
1283	1.276280e-03	4.931991e+00	2.465996e+00	
1284	1.277280e-03	4.926730e+00	2.463365e+00	
1285	1.278280e-03	4.921274e+00	2.460637e+00	
1286	1.279280e-03	4.915624e+00	2.457812e+00	
1287	1.280280e-03	4.909780e+00	2.454890e+00	
1288	1.281280e-03	4.903742e+00	2.451871e+00	
1289	1.282280e-03	4.897511e+00	2.448755e+00	
1290	1.283280e-03	4.891086e+00	2.445543e+00	
1291	1.284280e-03	4.884468e+00	2.442234e+00	
1292	1.285280e-03	4.877657e+00	2.438829e+00	
1293	1.286280e-03	4.870654e+00	2.435327e+00	
1294	1.287280e-03	4.863458e+00	2.431729e+00	
1295	1.288280e-03	4.856071e+00	2.428035e+00	
1296	1.289280e-03	4.848491e+00	2.424246e+00	
1297	1.290280e-03	4.840721e+00	2.420360e+00	
1298	1.291280e-03	4.832759e+00	2.416379e+00	
1299	1.292280e-03	4.824606e+00	2.412303e+00	
1300	1.293280e-03	4.816263e+00	2.408132e+00	
1301	1.294280e-03	4.807730e+00	2.403865e+00	
1302	1.295280e-03	4.799007e+00	2.399503e+00	
1303	1.296280e-03	4.790094e+00	2.395047e+00	
1304	1.297280e-03	4.780993e+00	2.390496e+00	
1305	1.298280e-03	4.771702e+00	2.385851e+00	
1306	1.299280e-03	4.762224e+00	2.381112e+00	
1307	1.300280e-03	4.752557e+00	2.376278e+00	
1308	1.301280e-03	4.742703e+00	2.371351e+00	
1309	1.302280e-03	4.732661e+00	2.366331e+00	
1310	1.303280e-03	4.722433e+00	2.361216e+00	
1311	1.304280e-03	4.712018e+00	2.356009e+00	
1312	1.305280e-03	4.701417e+00	2.350708e+00	
1313	1.306280e-03	4.690630e+00	2.345315e+00	
1314	1.307280e-03	4.679659e+00	2.339829e+00	
1315	1.308280e-03	4.668502e+00	2.334251e+00	
1316	1.309280e-03	4.657162e+00	2.328581e+00	
1317	1.310280e-03	4.645637e+00	2.322819e+00	
1318	1.311280e-03	4.633929e+00	2.316965e+00	
1319	1.312280e-03	4.622038e+00	2.311019e+00	
1320	1.313280e-03	4.609965e+00	2.304982e+00	
1321	1.314280e-03	4.597709e+00	2.298855e+00	
1322	1.315280e-03	4.585273e+00	2.292636e+00	
1323	1.316280e-03	4.572655e+00	2.286327e+00	
1324	1.317280e-03	4.559856e+00	2.279928e+00	
1325	1.318280e-03	4.546878e+00	2.273439e+00	
1326	1.319280e-03	4.533720e+00	2.266860e+00	
1327	1.320280e-03	4.520383e+00	2.260191e+00	
1328	1.321280e-03	4.506868e+00	2.253434e+00	
1329	1.322280e-03	4.493174e+00	2.246587e+00	
1330	1.323280e-03	4.479304e+00	2.239652e+00	

Index   time            v(nodea)        v(nodeb)        
--------------------------------------------------------------------------------
1331	1.324280e-03	4.465256e+00	2.232628e+00	
1332	1.325280e-03	4.451032e+00	2.225516e+00	
1333	1.326280e-03	4.436633e+00	2.218316e+00	
1334	1.327280e-03	4.422058e+00	2.211029e+00	
1335	1.328280e-03	4.407309e+00	2.203654e+00	
1336	1.329280e-03	4.392386e+00	2.196193e+00	
1337	1.330280e-03	4.377289e+00	2.188644e+00	
1338	1.331280e-03	4.362019e+00	2.181010e+00	
1339	1.332280e-03	4.346578e+00	2.173289e+00	
1340	1.333280e-03	4.330965e+00	2.165482e+00	
1341	1.334280e-03	4.315180e+00	2.157590e+00	
1342	1.335280e-03	4.299226e+00	2.149613e+00	
1343	1.336280e-03	4.283101e+00	2.141551e+00	
1344	1.337280e-03	4.266808e+00	2.133404e+00	
1345	1.338280e-03	4.250346e+00	2.125173e+00	
1346	1.339280e-03	4.233717e+00	2.116858e+00	
1347	1.340280e-03	4.216920e+00	2.108460e+00	
1348	1.341280e-03	4.199956e+00	2.099978e+00	
1349	1.342280e-03	4.182827e+00	2.091414e+00	
1350	1.343280e-03	4.165533e+00	2.082767e+00	
1351	1.344280e-03	4.148075e+00	2.074037e+00	
1352	1.345280e-03	4.130452e+00	2.065226e+00	
1353	1.346280e-03	4.112667e+00	2.056333e+00	
1354	1.347280e-03	4.094719e+00	2.047359e+00	
1355	1.348280e-03	4.076609e+00	2.038305e+00	
1356	1.349280e-03	4.058339e+00	2.029169e+00	
1357	1.350280e-03	4.039908e+00	2.019954e+00	
1358	1.351280e-03	4.021318e+00	2.010659e+00	
1359	1.352280e-03	4.002569e+00	2.001285e+00	
1360	1.353280e-03	3.983662e+00	1.991831e+00	
1361	1.354280e-03	3.964598e+00	1.982299e+00	
1362	1.355280e-03	3.945378e+00	1.972689e+00	
1363	1.356280e-03	3.926001e+00	1.963001e+00	
1364	1.357280e-03	3.906470e+00	1.953235e+00	
1365	1.358280e-03	3.886784e+00	1.943392e+00	
1366	1.359280e-03	3.866945e+00	1.933472e+00	
1367	1.360280e-03	3.846953e+00	1.923477e+00	
1368	1.361280e-03	3.826810e+00	1.913405e+00	
1369	1.362280e-03	3.806515e+00	1.903257e+00	
1370	1.363280e-03	3.786070e+00	1.893035e+00	
1371	1.364280e-03	3.765475e+00	1.882738e+00	
1372	1.365280e-03	3.744732e+00	1.872366e+00	
1373	1.366280e-03	3.723841e+00	1.861921e+00	
1374	1.367280e-03	3.702803e+00	1.851402e+00	
1375	1.368280e-03	3.681619e+00	1.840810e+00	
1376	1.369280e-03	3.660290e+00	1.830145e+00	
1377	1.370280e-03	3.638816e+00	1.819408e+00	
1378	1.371280e-03	3.617198e+00	1.808599e+00	
1379	1.372280e-03	3.595438e+00	1.797719e+00	
1380	1.373280e-03	3.573535e+00	1.786768e+00	
1381	1.374280e-03	3.551492e+00	1.775746e+00	
1382	1.375280e-03	3.529308e+00	1.764654e+00	
1383	1.376280e-03	3.506985e+00	1.753493e+00	
1384	1.377280e-03	3.484524e+00	1.742262e+00	
1385	1.378280e-03	3.461925e+00	1.730962e+00	
1386	1.379280e-03	3.439189e+00	1.719595e+00	
1387	1.380280e-03	3.416318e+00	1.708159e+00	
1388	1.381280e-03	3.393312e+00	1.696656e+00	

Index   time            v(nodea)        v(nodeb)        
--------------------------------------------------------------------------------
1389	1.382280e-03	3.370171e+00	1.685086e+00	
1390	1.383280e-03	3.346898e+00	1.673449e+00	
1391	1.384280e-03	3.323493e+00	1.661746e+00	
1392	1.385280e-03	3.299956e+00	1.649978e+00	
1393	1.386280e-03	3.276289e+00	1.638144e+00	
1394	1.387280e-03	3.252493e+00	1.626246e+00	
1395	1.388280e-03	3.228568e+00	1.614284e+00	
1396	1.389280e-03	3.204516e+00	1.602258e+00	
1397	1.390280e-03	3.180337e+00	1.590169e+00	
1398	1.391280e-03	3.156033e+00	1.578017e+00	
1399	1.392280e-03	3.131604e+00	1.565802e+00	
1400	1.393280e-03	3.107052e+00	1.553526e+00	
1401	1.394280e-03	3.082377e+00	1.541188e+00	
1402	1.395280e-03	3.057580e+00	1.528790e+00	
1403	1.396280e-03	3.032662e+00	1.516331e+00	
1404	1.397280e-03	3.007625e+00	1.503813e+00	
1405	1.398280e-03	2.982469e+00	1.491235e+00	
1406	1.399280e-03	2.957196e+00	1.478598e+00	
1407	1.400280e-03	2.931805e+00	1.465903e+00	
1408	1.401280e-03	2.906299e+00	1.453150e+00	
1409	1.402280e-03	2.880678e+00	1.440339e+00	
1410	1.403280e-03	2.854944e+00	1.427472e+00	
1411	1.404280e-03	2.829096e+00	1.414548e+00	
1412	1.405280e-03	2.803137e+00	1.401569e+00	
1413	1.406280e-03	2.777067e+00	1.388534e+00	
1414	1.407280e-03	2.750888e+00	1.375444e+00	
1415	1.408280e-03	2.724600e+00	1.362300e+00	
1416	1.409280e-03	2.698205e+00	1.349102e+00	
1417	1.410280e-03	2.671703e+00	1.335851e+00	
1418	1.411280e-03	2.645095e+00	1.322548e+00	
1419	1.412280e-03	2.618383e+00	1.309192e+00	
1420	1.413280e-03	2.591568e+00	1.295784e+00	
1421	1.414280e-03	2.564650e+00	1.282325e+00	
1422	1.415280e-03	2.537632e+00	1.268816e+00	
1423	1.416280e-03	2.510513e+00	1.255256e+00	
1424	1.417280e-03	2.483295e+00	1.241647e+00	
1425	1.418280e-03	2.455978e+00	1.227989e+00	
1426	1.419280e-03	2.428565e+00	1.214283e+00	
1427	1.420280e-03	2.401056e+00	1.200528e+00	
1428	1.421280e-03	2.373452e+00	1.186726e+00	
1429	1.422280e-03	2.345755e+00	1.172877e+00	
1430	1.423280e-03	2.317965e+00	1.158982e+00	
1431	1.424280e-03	2.290083e+00	1.145042e+00	
1432	1.425280e-03	2.262111e+00	1.131056e+00	
1433	1.426280e-03	2.234050e+00	1.117025e+00	
1434	1.427280e-03	2.205900e+00	1.102950e+00	
1435	1.428280e-03	2.177664e+00	1.088832e+00	
1436	1.429280e-03	2.149341e+00	1.074671e+00	
1437	1.430280e-03	2.120934e+00	1.060467e+00	
1438	1.431280e-03	2.092443e+00	1.046221e+00	
1439	1.432280e-03	2.063869e+00	1.031934e+00	
1440	1.433280e-03	2.035214e+00	1.017607e+00	
1441	1.434280e-03	2.006478e+00	1.003239e+00	
1442	1.435280e-03	1.977663e+00	9.888317e-01	
1443	1.436280e-03	1.948771e+00	9.743853e-01	
1444	1.437280e-03	1.919801e+00	9.599004e-01	
1445	1.438280e-03	1.890755e+00	9.453776e-01	
1446	1.439280e-03	1.861635e+00	9.308175e-01	

Index   time            v(nodea)        v(nodeb)        
--------------------------------------------------------------------------------
1447	1.440280e-03	1.832441e+00	9.162206e-01	
1448	1.441280e-03	1.803175e+00	9.015876e-01	
1449	1.442280e-03	1.773838e+00	8.869189e-01	
1450	1.443280e-03	1.744431e+00	8.722153e-01	
1451	1.444280e-03	1.714954e+00	8.574772e-01	
1452	1.445280e-03	1.685411e+00	8.427053e-01	
1453	1.446280e-03	1.655800e+00	8.279001e-01	
1454	1.447280e-03	1.626124e+00	8.130622e-01	
1455	1.448280e-03	1.596384e+00	7.981922e-01	
1456	1.449280e-03	1.566581e+00	7.832907e-01	
1457	1.450280e-03	1.536717e+00	7.683583e-01	
1458	1.451280e-03	1.506791e+00	7.533956e-01	
1459	1.452280e-03	1.476806e+00	7.384031e-01	
1460	1.453280e-03	1.446763e+00	7.233815e-01	
1461	1.454280e-03	1.416663e+00	7.083313e-01	
1462	1.455280e-03	1.386506e+00	6.932531e-01	
1463	1.456280e-03	1.356295e+00	6.781476e-01	
1464	1.457280e-03	1.326031e+00	6.630153e-01	
1465	1.458280e-03	1.295714e+00	6.478568e-01	
1466	1.459280e-03	1.265345e+00	6.326727e-01	
1467	1.460280e-03	1.234927e+00	6.174637e-01	
1468	1.461280e-03	1.204461e+00	6.022303e-01	
1469	1.462280e-03	1.173946e+00	5.869731e-01	
1470	1.463280e-03	1.143386e+00	5.716928e-01	
1471	1.464280e-03	1.112780e+00	5.563898e-01	
1472	1.465280e-03	1.082130e+00	5.410650e-01	
1473	1.466280e-03	1.051437e+00	5.257187e-01	
1474	1.467280e-03	1.020703e+00	5.103517e-01	
1475	1.468280e-03	9.899291e-01	4.949646e-01	
1476	1.469280e-03	9.591157e-01	4.795579e-01	
1477	1.470280e-03	9.282645e-01	4.641322e-01	
1478	1.471280e-03	8.973766e-01	4.486883e-01	
1479	1.472280e-03	8.664533e-01	4.332266e-01	
1480	1.473280e-03	8.354957e-01	4.177479e-01	
1481	1.474280e-03	8.045052e-01	4.022526e-01	
1482	1.475280e-03	7.734830e-01	3.867415e-01	
1483	1.476280e-03	7.424302e-01	3.712151e-01	
1484	1.477280e-03	7.113480e-01	3.556740e-01	
1485	1.478280e-03	6.802378e-01	3.401189e-01	
1486	1.479280e-03	6.491008e-01	3.245504e-01	
1487	1.480280e-03	6.179381e-01	3.089691e-01	
1488	1.481280e-03	5.867510e-01	2.933755e-01	
1489	1.482280e-03	5.555408e-01	2.777704e-01	
1490	1.483280e-03	5.243086e-01	2.621543e-01	
1491	1.484280e-03	4.930558e-01	2.465279e-01	
1492	1.485280e-03	4.617834e-01	2.308917e-01	
1493	1.486280e-03	4.304929e-01	2.152464e-01	
1494	1.487280e-03	3.991853e-01	1.995926e-01	
1495	1.488280e-03	3.678620e-01	1.839310e-01	
1496	1.489280e-03	3.365241e-01	1.682621e-01	
1497	1.490280e-03	3.051730e-01	1.525865e-01	
1498	1.491280e-03	2.738098e-01	1.369049e-01	
1499	1.492280e-03	2.424359e-01	1.212179e-01	
1500	1.493280e-03	2.110523e-01	1.055262e-01	
1501	1.494280e-03	1.796604e-01	8.983021e-02	
1502	1.495280e-03	1.482614e-01	7.413072e-02	
1503	1.496280e-03	1.168566e-01	5.842830e-02	
1504	1.497280e-03	8.544716e-02	4.272358e-02	

Index   time            v(nodea)        v(nodeb)        
--------------------------------------------------------------------------------
1505	1.498280e-03	5.403434e-02	2.701717e-02	
1506	1.499280e-03	2.261939e-02	1.130969e-02	
1507	1.500280e-03	-8.79645e-03	-4.39823e-03	
1508	1.501280e-03	-4.02120e-02	-2.01060e-02	
1509	1.502280e-03	-7.16259e-02	-3.58129e-02	
1510	1.503280e-03	-1.03037e-01	-5.15185e-02	
1511	1.504280e-03	-1.34444e-01	-6.72220e-02	
1512	1.505280e-03	-1.65846e-01	-8.29228e-02	
1513	1.506280e-03	-1.97241e-01	-9.86204e-02	
1514	1.507280e-03	-2.28628e-01	-1.14314e-01	
1515	1.508280e-03	-2.60007e-01	-1.30003e-01	
1516	1.509280e-03	-2.91375e-01	-1.45687e-01	
1517	1.510280e-03	-3.22731e-01	-1.61366e-01	
1518	1.511280e-03	-3.54075e-01	-1.77038e-01	
1519	1.512280e-03	-3.85405e-01	-1.92702e-01	
1520	1.513280e-03	-4.16720e-01	-2.08360e-01	
1521	1.514280e-03	-4.48018e-01	-2.24009e-01	
1522	1.515280e-03	-4.79298e-01	-2.39649e-01	
1523	1.516280e-03	-5.10560e-01	-2.55280e-01	
1524	1.517280e-03	-5.41801e-01	-2.70901e-01	
1525	1.518280e-03	-5.73021e-01	-2.86511e-01	
1526	1.519280e-03	-6.04219e-01	-3.02109e-01	
1527	1.520280e-03	-6.35392e-01	-3.17696e-01	
1528	1.521280e-03	-6.66541e-01	-3.33270e-01	
1529	1.522280e-03	-6.97663e-01	-3.48831e-01	
1530	1.523280e-03	-7.28758e-01	-3.64379e-01	
1531	1.524280e-03	-7.59823e-01	-3.79912e-01	
1532	1.525280e-03	-7.90859e-01	-3.95430e-01	
1533	1.526280e-03	-8.21864e-01	-4.10932e-01	
1534	1.527280e-03	-8.52836e-01	-4.26418e-01	
1535	1.528280e-03	-8.83775e-01	-4.41887e-01	
1536	1.529280e-03	-9.14678e-01	-4.57339e-01	
1537	1.530280e-03	-9.45546e-01	-4.72773e-01	
1538	1.531280e-03	-9.76376e-01	-4.88188e-01	
1539	1.532280e-03	-1.00717e+00	-5.03584e-01	
1540	1.533280e-03	-1.03792e+00	-5.18960e-01	
1541	1.534280e-03	-1.06863e+00	-5.34315e-01	
1542	1.535280e-03	-1.09930e+00	-5.49650e-01	
1543	1.536280e-03	-1.12992e+00	-5.64962e-01	
1544	1.537280e-03	-1.16051e+00	-5.80253e-01	
1545	1.538280e-03	-1.19104e+00	-5.95520e-01	
1546	1.539280e-03	-1.22153e+00	-6.10764e-01	
1547	1.540280e-03	-1.25197e+00	-6.25984e-01	
1548	1.541280e-03	-1.28236e+00	-6.41179e-01	
1549	1.542280e-03	-1.31270e+00	-6.56349e-01	
1550	1.543280e-03	-1.34299e+00	-6.71493e-01	
1551	1.544280e-03	-1.37322e+00	-6.86610e-01	
1552	1.545280e-03	-1.40340e+00	-7.01700e-01	
1553	1.546280e-03	-1.43353e+00	-7.16763e-01	
1554	1.547280e-03	-1.46359e+00	-7.31797e-01	
1555	1.548280e-03	-1.49361e+00	-7.46803e-01	
1556	1.549280e-03	-1.52356e+00	-7.61778e-01	
1557	1.550280e-03	-1.55345e+00	-7.76724e-01	
1558	1.551280e-03	-1.58328e+00	-7.91639e-01	
1559	1.552280e-03	-1.61305e+00	-8.06523e-01	
1560	1.553280e-03	-1.64275e+00	-8.21375e-01	
1561	1.554280e-03	-1.67239e+00	-8.36195e-01	
1562	1.555280e-03	-1.70196e+00	-8.50982e-01	

Index   time            v(nodea)        v(nodeb)        
--------------------------------------------------------------------------------
1563	1.556280e-03	-1.73147e+00	-8.65735e-01	
1564	1.557280e-03	-1.76091e+00	-8.80454e-01	
1565	1.558280e-03	-1.79028e+00	-8.95138e-01	
1566	1.559280e-03	-1.81957e+00	-9.09786e-01	
1567	1.560280e-03	-1.84880e+00	-9.24399e-01	
1568	1.561280e-03	-1.87795e+00	-9.38976e-01	
1569	1.562280e-03	-1.90703e+00	-9.53515e-01	
1570	1.563280e-03	-1.93603e+00	-9.68017e-01	
1571	1.564280e-03	-1.96496e+00	-9.82480e-01	
1572	1.565280e-03	-1.99381e+00	-9.96905e-01	
1573	1.566280e-03	-2.02258e+00	-1.01129e+00	
1574	1.567280e-03	-2.05127e+00	-1.02564e+00	
1575	1.568280e-03	-2.07988e+00	-1.03994e+00	
1576	1.569280e-03	-2.10841e+00	-1.05420e+00	
1577	1.570280e-03	-2.13685e+00	-1.06843e+00	
1578	1.571280e-03	-2.16521e+00	-1.08261e+00	
1579	1.572280e-03	-2.19349e+00	-1.09674e+00	
1580	1.573280e-03	-2.22167e+00	-1.11084e+00	
1581	1.574280e-03	-2.24978e+00	-1.12489e+00	
1582	1.575280e-03	-2.27779e+00	-1.13889e+00	
1583	1.576280e-03	-2.30571e+00	-1.15285e+00	
1584	1.577280e-03	-2.33354e+00	-1.16677e+00	
1585	1.578280e-03	-2.36128e+00	-1.18064e+00	
1586	1.579280e-03	-2.38892e+00	-1.19446e+00	
1587	1.580280e-03	-2.41647e+00	-1.20824e+00	
1588	1.581280e-03	-2.44393e+00	-1.22196e+00	
1589	1.582280e-03	-2.47129e+00	-1.23564e+00	
1590	1.583280e-03	-2.49855e+00	-1.24927e+00	
1591	1.584280e-03	-2.52571e+00	-1.26286e+00	
1592	1.585280e-03	-2.55277e+00	-1.27639e+00	
1593	1.586280e-03	-2.57974e+00	-1.28987e+00	
1594	1.587280e-03	-2.60660e+00	-1.30330e+00	
1595	1.588280e-03	-2.63335e+00	-1.31668e+00	
1596	1.589280e-03	-2.66001e+00	-1.33000e+00	
1597	1.590280e-03	-2.68656e+00	-1.34328e+00	
1598	1.591280e-03	-2.71300e+00	-1.35650e+00	
1599	1.592280e-03	-2.73933e+00	-1.36967e+00	
1600	1.593280e-03	-2.76556e+00	-1.38278e+00	
1601	1.594280e-03	-2.79168e+00	-1.39584e+00	
1602	1.595280e-03	-2.81769e+00	-1.40884e+00	
1603	1.596280e-03	-2.84358e+00	-1.42179e+00	
1604	1.597280e-03	-2.86937e+00	-1.43468e+00	
1605	1.598280e-03	-2.89504e+00	-1.44752e+00	
1606	1.599280e-03	-2.92060e+00	-1.46030e+00	
1607	1.600280e-03	-2.94604e+00	-1.47302e+00	
1608	1.601280e-03	-2.97136e+00	-1.48568e+00	
1609	1.602280e-03	-2.99657e+00	-1.49829e+00	
1610	1.603280e-03	-3.02166e+00	-1.51083e+00	
1611	1.604280e-03	-3.04663e+00	-1.52332e+00	
1612	1.605280e-03	-3.07148e+00	-1.53574e+00	
1613	1.606280e-03	-3.09621e+00	-1.54810e+00	
1614	1.607280e-03	-3.12082e+00	-1.56041e+00	
1615	1.608280e-03	-3.14530e+00	-1.57265e+00	
1616	1.609280e-03	-3.16966e+00	-1.58483e+00	
1617	1.610280e-03	-3.19389e+00	-1.59695e+00	
1618	1.611280e-03	-3.21800e+00	-1.60900e+00	
1619	1.612280e-03	-3.24198e+00	-1.62099e+00	
1620	1.613280e-03	-3.26583e+00	-1.63292e+00	

Index   time            v(nodea)        v(nodeb)        
--------------------------------------------------------------------------------
1621	1.614280e-03	-3.28956e+00	-1.64478e+00	
1622	1.615280e-03	-3.31315e+00	-1.65658e+00	
1623	1.616280e-03	-3.33662e+00	-1.66831e+00	
1624	1.617280e-03	-3.35995e+00	-1.67997e+00	
1625	1.618280e-03	-3.38315e+00	-1.69157e+00	
1626	1.619280e-03	-3.40621e+00	-1.70311e+00	
1627	1.620280e-03	-3.42914e+00	-1.71457e+00	
1628	1.621280e-03	-3.45194e+00	-1.72597e+00	
1629	1.622280e-03	-3.47460e+00	-1.73730e+00	
1630	1.623280e-03	-3.49712e+00	-1.74856e+00	
1631	1.624280e-03	-3.51950e+00	-1.75975e+00	
1632	1.625280e-03	-3.54175e+00	-1.77087e+00	
1633	1.626280e-03	-3.56385e+00	-1.78193e+00	
1634	1.627280e-03	-3.58582e+00	-1.79291e+00	
1635	1.628280e-03	-3.60764e+00	-1.80382e+00	
1636	1.629280e-03	-3.62932e+00	-1.81466e+00	
1637	1.630280e-03	-3.65086e+00	-1.82543e+00	
1638	1.631280e-03	-3.67225e+00	-1.83613e+00	
1639	1.632280e-03	-3.69350e+00	-1.84675e+00	
1640	1.633280e-03	-3.71460e+00	-1.85730e+00	
1641	1.634280e-03	-3.73556e+00	-1.86778e+00	
1642	1.635280e-03	-3.75637e+00	-1.87818e+00	
1643	1.636280e-03	-3.77703e+00	-1.88851e+00	
1644	1.637280e-03	-3.79754e+00	-1.89877e+00	
1645	1.638280e-03	-3.81790e+00	-1.90895e+00	
1646	1.639280e-03	-3.83811e+00	-1.91905e+00	
1647	1.640280e-03	-3.85817e+00	-1.92908e+00	
1648	1.641280e-03	-3.87807e+00	-1.93904e+00	
1649	1.642280e-03	-3.89783e+00	-1.94891e+00	
1650	1.643280e-03	-3.91743e+00	-1.95871e+00	
1651	1.644280e-03	-3.93687e+00	-1.96844e+00	
1652	1.645280e-03	-3.95616e+00	-1.97808e+00	
1653	1.646280e-03	-3.97529e+00	-1.98765e+00	
1654	1.647280e-03	-3.99427e+00	-1.99713e+00	
1655	1.648280e-03	-4.01309e+00	-2.00654e+00	
1656	1.649280e-03	-4.03175e+00	-2.01587e+00	
1657	1.650280e-03	-4.05025e+00	-2.02512e+00	
1658	1.651280e-03	-4.06859e+00	-2.03430e+00	
1659	1.652280e-03	-4.08677e+00	-2.04339e+00	
1660	1.653280e-03	-4.10479e+00	-2.05239e+00	
1661	1.654280e-03	-4.12265e+00	-2.06132e+00	
1662	1.655280e-03	-4.14034e+00	-2.07017e+00	
1663	1.656280e-03	-4.15787e+00	-2.07894e+00	
1664	1.657280e-03	-4.17524e+00	-2.08762e+00	
1665	1.658280e-03	-4.19244e+00	-2.09622e+00	
1666	1.659280e-03	-4.20948e+00	-2.10474e+00	
1667	1.660280e-03	-4.22635e+00	-2.11317e+00	
1668	1.661280e-03	-4.24305e+00	-2.12152e+00	
1669	1.662280e-03	-4.25959e+00	-2.12979e+00	
1670	1.663280e-03	-4.27595e+00	-2.13798e+00	
1671	1.664280e-03	-4.29215e+00	-2.14608e+00	
1672	1.665280e-03	-4.30818e+00	-2.15409e+00	
1673	1.666280e-03	-4.32404e+00	-2.16202e+00	
1674	1.667280e-03	-4.33973e+00	-2.16986e+00	
1675	1.668280e-03	-4.35525e+00	-2.17762e+00	
1676	1.669280e-03	-4.37059e+00	-2.18530e+00	
1677	1.670280e-03	-4.38576e+00	-2.19288e+00	
1678	1.671280e-03	-4.40076e+00	-2.20038e+00	

Index   time            v(nodea)        v(nodeb)        
--------------------------------------------------------------------------------
1679	1.672280e-03	-4.41559e+00	-2.20779e+00	
1680	1.673280e-03	-4.43024e+00	-2.21512e+00	
1681	1.674280e-03	-4.44472e+00	-2.22236e+00	
1682	1.675280e-03	-4.45902e+00	-2.22951e+00	
1683	1.676280e-03	-4.47314e+00	-2.23657e+00	
1684	1.677280e-03	-4.48709e+00	-2.24355e+00	
1685	1.678280e-03	-4.50086e+00	-2.25043e+00	
1686	1.679280e-03	-4.51446e+00	-2.25723e+00	
1687	1.680280e-03	-4.52787e+00	-2.26394e+00	
1688	1.681280e-03	-4.54111e+00	-2.27056e+00	
1689	1.682280e-03	-4.55417e+00	-2.27708e+00	
1690	1.683280e-03	-4.56705e+00	-2.28352e+00	
1691	1.684280e-03	-4.57974e+00	-2.28987e+00	
1692	1.685280e-03	-4.59226e+00	-2.29613e+00	
[...]
9587	9.580280e-03	-2.41647e+00	-1.20824e+00	
9588	9.581280e-03	-2.44393e+00	-1.22196e+00	
9589	9.582280e-03	-2.47129e+00	-1.23564e+00	
9590	9.583280e-03	-2.49855e+00	-1.24927e+00	
9591	9.584280e-03	-2.52571e+00	-1.26286e+00	
9592	9.585280e-03	-2.55277e+00	-1.27639e+00	
9593	9.586280e-03	-2.57974e+00	-1.28987e+00	
9594	9.587280e-03	-2.60660e+00	-1.30330e+00	
9595	9.588280e-03	-2.63335e+00	-1.31668e+00	
9596	9.589280e-03	-2.66001e+00	-1.33000e+00	
9597	9.590280e-03	-2.68656e+00	-1.34328e+00	
9598	9.591280e-03	-2.71300e+00	-1.35650e+00	
9599	9.592280e-03	-2.73933e+00	-1.36967e+00	
9600	9.593280e-03	-2.76556e+00	-1.38278e+00	
9601	9.594280e-03	-2.79168e+00	-1.39584e+00	
9602	9.595280e-03	-2.81769e+00	-1.40884e+00	
9603	9.596280e-03	-2.84358e+00	-1.42179e+00	
9604	9.597280e-03	-2.86937e+00	-1.43468e+00	
9605	9.598280e-03	-2.89504e+00	-1.44752e+00	
9606	9.599280e-03	-2.92060e+00	-1.46030e+00	
9607	9.600280e-03	-2.94604e+00	-1.47302e+00	
9608	9.601280e-03	-2.97136e+00	-1.48568e+00	
9609	9.602280e-03	-2.99657e+00	-1.49829e+00	
9610	9.603280e-03	-3.02166e+00	-1.51083e+00	
9611	9.604280e-03	-3.04663e+00	-1.52332e+00	
9612	9.605280e-03	-3.07148e+00	-1.53574e+00	
9613	9.606280e-03	-3.09621e+00	-1.54810e+00	
9614	9.607280e-03	-3.12082e+00	-1.56041e+00	
9615	9.608280e-03	-3.14530e+00	-1.57265e+00	
9616	9.609280e-03	-3.16966e+00	-1.58483e+00	
9617	9.610280e-03	-3.19389e+00	-1.59695e+00	
9618	9.611280e-03	-3.21800e+00	-1.60900e+00	
9619	9.612280e-03	-3.24198e+00	-1.62099e+00	
9620	9.613280e-03	-3.26583e+00	-1.63292e+00	
9621	9.614280e-03	-3.28956e+00	-1.64478e+00	
9622	9.615280e-03	-3.31315e+00	-1.65658e+00	
9623	9.616280e-03	-3.33662e+00	-1.66831e+00	
9624	9.617280e-03	-3.35995e+00	-1.67997e+00	

Index   time            v(nodea)        v(nodeb)        
--------------------------------------------------------------------------------
9625	9.618280e-03	-3.38315e+00	-1.69157e+00	
9626	9.619280e-03	-3.40621e+00	-1.70311e+00	
9627	9.620280e-03	-3.42914e+00	-1.71457e+00	
9628	9.621280e-03	-3.45194e+00	-1.72597e+00	
9629	9.622280e-03	-3.47460e+00	-1.73730e+00	
9630	9.623280e-03	-3.49712e+00	-1.74856e+00	
9631	9.624280e-03	-3.51950e+00	-1.75975e+00	
9632	9.625280e-03	-3.54175e+00	-1.77087e+00	
9633	9.626280e-03	-3.56385e+00	-1.78193e+00	
9634	9.627280e-03	-3.58582e+00	-1.79291e+00	
9635	9.628280e-03	-3.60764e+00	-1.80382e+00	
9636	9.629280e-03	-3.62932e+00	-1.81466e+00	
9637	9.630280e-03	-3.65086e+00	-1.82543e+00	
9638	9.631280e-03	-3.67225e+00	-1.83613e+00	
9639	9.632280e-03	-3.69350e+00	-1.84675e+00	
9640	9.633280e-03	-3.71460e+00	-1.85730e+00	
9641	9.634280e-03	-3.73556e+00	-1.86778e+00	
9642	9.635280e-03	-3.75637e+00	-1.87818e+00	
9643	9.636280e-03	-3.77703e+00	-1.88851e+00	
9644	9.637280e-03	-3.79754e+00	-1.89877e+00	
9645	9.638280e-03	-3.81790e+00	-1.90895e+00	
9646	9.639280e-03	-3.83811e+00	-1.91905e+00	
9647	9.640280e-03	-3.85817e+00	-1.92908e+00	
9648	9.641280e-03	-3.87807e+00	-1.93904e+00	
9649	9.642280e-03	-3.89783e+00	-1.94891e+00	
9650	9.643280e-03	-3.91743e+00	-1.95871e+00	
9651	9.644280e-03	-3.93687e+00	-1.96844e+00	
9652	9.645280e-03	-3.95616e+00	-1.97808e+00	
9653	9.646280e-03	-3.97529e+00	-1.98765e+00	
9654	9.647280e-03	-3.99427e+00	-1.99713e+00	
9655	9.648280e-03	-4.01309e+00	-2.00654e+00	
9656	9.649280e-03	-4.03175e+00	-2.01587e+00	
9657	9.650280e-03	-4.05025e+00	-2.02512e+00	
9658	9.651280e-03	-4.06859e+00	-2.03430e+00	
9659	9.652280e-03	-4.08677e+00	-2.04339e+00	
9660	9.653280e-03	-4.10479e+00	-2.05239e+00	
9661	9.654280e-03	-4.12265e+00	-2.06132e+00	
9662	9.655280e-03	-4.14034e+00	-2.07017e+00	
9663	9.656280e-03	-4.15787e+00	-2.07894e+00	
9664	9.657280e-03	-4.17524e+00	-2.08762e+00	
9665	9.658280e-03	-4.19244e+00	-2.09622e+00	
9666	9.659280e-03	-4.20948e+00	-2.10474e+00	
9667	9.660280e-03	-4.22635e+00	-2.11317e+00	
9668	9.661280e-03	-4.24305e+00	-2.12152e+00	
9669	9.662280e-03	-4.25959e+00	-2.12979e+00	
9670	9.663280e-03	-4.27595e+00	-2.13798e+00	
9671	9.664280e-03	-4.29215e+00	-2.14608e+00	
9672	9.665280e-03	-4.30818e+00	-2.15409e+00	
9673	9.666280e-03	-4.32404e+00	-2.16202e+00	
9674	9.667280e-03	-4.33973e+00	-2.16986e+00	
9675	9.668280e-03	-4.35525e+00	-2.17762e+00	
9676	9.669280e-03	-4.37059e+00	-2.18530e+00	
9677	9.670280e-03	-4.38576e+00	-2.19288e+00	
9678	9.671280e-03	-4.40076e+00	-2.20038e+00	
9679	9.672280e-03	-4.41559e+00	-2.20779e+00	
9680	9.673280e-03	-4.43024e+00	-2.21512e+00	
9681	9.674280e-03	-4.44472e+00	-2.22236e+00	
9682	9.675280e-03	-4.45902e+00	-2.22951e+00	

Index   time            v(nodea)        v(nodeb)        
--------------------------------------------------------------------------------
9683	9.676280e-03	-4.47314e+00	-2.23657e+00	
9684	9.677280e-03	-4.48709e+00	-2.24355e+00	
9685	9.678280e-03	-4.50086e+00	-2.25043e+00	
9686	9.679280e-03	-4.51446e+00	-2.25723e+00	
9687	9.680280e-03	-4.52787e+00	-2.26394e+00	
9688	9.681280e-03	-4.54111e+00	-2.27056e+00	
9689	9.682280e-03	-4.55417e+00	-2.27708e+00	
9690	9.683280e-03	-4.56705e+00	-2.28352e+00	
9691	9.684280e-03	-4.57974e+00	-2.28987e+00	
9692	9.685280e-03	-4.59226e+00	-2.29613e+00	
9693	9.686280e-03	-4.60459e+00	-2.30230e+00	
9694	9.687280e-03	-4.61675e+00	-2.30837e+00	
9695	9.688280e-03	-4.62872e+00	-2.31436e+00	
9696	9.689280e-03	-4.64051e+00	-2.32025e+00	
9697	9.690280e-03	-4.65211e+00	-2.32606e+00	
9698	9.691280e-03	-4.66354e+00	-2.33177e+00	
9699	9.692280e-03	-4.67477e+00	-2.33739e+00	
9700	9.693280e-03	-4.68583e+00	-2.34291e+00	
9701	9.694280e-03	-4.69669e+00	-2.34835e+00	
9702	9.695280e-03	-4.70738e+00	-2.35369e+00	
9703	9.696280e-03	-4.71787e+00	-2.35894e+00	
9704	9.697280e-03	-4.72818e+00	-2.36409e+00	
9705	9.698280e-03	-4.73831e+00	-2.36915e+00	
9706	9.699280e-03	-4.74824e+00	-2.37412e+00	
9707	9.700280e-03	-4.75799e+00	-2.37900e+00	
9708	9.701280e-03	-4.76755e+00	-2.38378e+00	
9709	9.702280e-03	-4.77693e+00	-2.38846e+00	
9710	9.703280e-03	-4.78611e+00	-2.39306e+00	
9711	9.704280e-03	-4.79511e+00	-2.39755e+00	
9712	9.705280e-03	-4.80392e+00	-2.40196e+00	
9713	9.706280e-03	-4.81253e+00	-2.40627e+00	
9714	9.707280e-03	-4.82096e+00	-2.41048e+00	
9715	9.708280e-03	-4.82920e+00	-2.41460e+00	
9716	9.709280e-03	-4.83724e+00	-2.41862e+00	
9717	9.710280e-03	-4.84510e+00	-2.42255e+00	
9718	9.711280e-03	-4.85276e+00	-2.42638e+00	
9719	9.712280e-03	-4.86023e+00	-2.43012e+00	
9720	9.713280e-03	-4.86751e+00	-2.43376e+00	
9721	9.714280e-03	-4.87460e+00	-2.43730e+00	
9722	9.715280e-03	-4.88150e+00	-2.44075e+00	
9723	9.716280e-03	-4.88820e+00	-2.44410e+00	
9724	9.717280e-03	-4.89471e+00	-2.44735e+00	
9725	9.718280e-03	-4.90102e+00	-2.45051e+00	
9726	9.719280e-03	-4.90715e+00	-2.45357e+00	
9727	9.720280e-03	-4.91308e+00	-2.45654e+00	
9728	9.721280e-03	-4.91881e+00	-2.45941e+00	
9729	9.722280e-03	-4.92435e+00	-2.46218e+00	
9730	9.723280e-03	-4.92970e+00	-2.46485e+00	
9731	9.724280e-03	-4.93485e+00	-2.46743e+00	
9732	9.725280e-03	-4.93981e+00	-2.46991e+00	
9733	9.726280e-03	-4.94457e+00	-2.47229e+00	
9734	9.727280e-03	-4.94914e+00	-2.47457e+00	
9735	9.728280e-03	-4.95351e+00	-2.47676e+00	
9736	9.729280e-03	-4.95769e+00	-2.47884e+00	
9737	9.730280e-03	-4.96167e+00	-2.48083e+00	
9738	9.731280e-03	-4.96545e+00	-2.48273e+00	
9739	9.732280e-03	-4.96904e+00	-2.48452e+00	
9740	9.733280e-03	-4.97243e+00	-2.48622e+00	

Index   time            v(nodea)        v(nodeb)        
--------------------------------------------------------------------------------
9741	9.734280e-03	-4.97563e+00	-2.48782e+00	
9742	9.735280e-03	-4.97863e+00	-2.48931e+00	
9743	9.736280e-03	-4.98143e+00	-2.49072e+00	
9744	9.737280e-03	-4.98404e+00	-2.49202e+00	
9745	9.738280e-03	-4.98645e+00	-2.49322e+00	
9746	9.739280e-03	-4.98866e+00	-2.49433e+00	
9747	9.740280e-03	-4.99068e+00	-2.49534e+00	
9748	9.741280e-03	-4.99250e+00	-2.49625e+00	
9749	9.742280e-03	-4.99412e+00	-2.49706e+00	
9750	9.743280e-03	-4.99554e+00	-2.49777e+00	
9751	9.744280e-03	-4.99677e+00	-2.49839e+00	
9752	9.745280e-03	-4.99780e+00	-2.49890e+00	
9753	9.746280e-03	-4.99863e+00	-2.49932e+00	
9754	9.747280e-03	-4.99927e+00	-2.49963e+00	
9755	9.748280e-03	-4.99971e+00	-2.49985e+00	
9756	9.749280e-03	-4.99995e+00	-2.49997e+00	
9757	9.750280e-03	-4.99999e+00	-2.50000e+00	
9758	9.751280e-03	-4.99984e+00	-2.49992e+00	
9759	9.752280e-03	-4.99949e+00	-2.49974e+00	
9760	9.753280e-03	-4.99894e+00	-2.49947e+00	
9761	9.754280e-03	-4.99819e+00	-2.49910e+00	
9762	9.755280e-03	-4.99725e+00	-2.49862e+00	
9763	9.756280e-03	-4.99611e+00	-2.49805e+00	
9764	9.757280e-03	-4.99477e+00	-2.49739e+00	
9765	9.758280e-03	-4.99324e+00	-2.49662e+00	
9766	9.759280e-03	-4.99150e+00	-2.49575e+00	
9767	9.760280e-03	-4.98957e+00	-2.49479e+00	
9768	9.761280e-03	-4.98745e+00	-2.49372e+00	
9769	9.762280e-03	-4.98512e+00	-2.49256e+00	
9770	9.763280e-03	-4.98260e+00	-2.49130e+00	
9771	9.764280e-03	-4.97989e+00	-2.48994e+00	
9772	9.765280e-03	-4.97697e+00	-2.48849e+00	
9773	9.766280e-03	-4.97386e+00	-2.48693e+00	
9774	9.767280e-03	-4.97056e+00	-2.48528e+00	
9775	9.768280e-03	-4.96706e+00	-2.48353e+00	
9776	9.769280e-03	-4.96336e+00	-2.48168e+00	
9777	9.770280e-03	-4.95946e+00	-2.47973e+00	
9778	9.771280e-03	-4.95537e+00	-2.47769e+00	
9779	9.772280e-03	-4.95109e+00	-2.47554e+00	
9780	9.773280e-03	-4.94661e+00	-2.47330e+00	
9781	9.774280e-03	-4.94193e+00	-2.47096e+00	
9782	9.775280e-03	-4.93706e+00	-2.46853e+00	
9783	9.776280e-03	-4.93199e+00	-2.46600e+00	
9784	9.777280e-03	-4.92673e+00	-2.46337e+00	
9785	9.778280e-03	-4.92127e+00	-2.46064e+00	
9786	9.779280e-03	-4.91562e+00	-2.45781e+00	
9787	9.780280e-03	-4.90978e+00	-2.45489e+00	
9788	9.781280e-03	-4.90374e+00	-2.45187e+00	
9789	9.782280e-03	-4.89751e+00	-2.44876e+00	
9790	9.783280e-03	-4.89109e+00	-2.44554e+00	
9791	9.784280e-03	-4.88447e+00	-2.44223e+00	
9792	9.785280e-03	-4.87766e+00	-2.43883e+00	
9793	9.786280e-03	-4.87065e+00	-2.43533e+00	
9794	9.787280e-03	-4.86346e+00	-2.43173e+00	
9795	9.788280e-03	-4.85607e+00	-2.42804e+00	
9796	9.789280e-03	-4.84849e+00	-2.42425e+00	
9797	9.790280e-03	-4.84072e+00	-2.42036e+00	
9798	9.791280e-03	-4.83276e+00	-2.41638e+00	

Index   time            v(nodea)        v(nodeb)        
--------------------------------------------------------------------------------
9799	9.792280e-03	-4.82461e+00	-2.41230e+00	
9800	9.793280e-03	-4.81626e+00	-2.40813e+00	
9801	9.794280e-03	-4.80773e+00	-2.40386e+00	
9802	9.795280e-03	-4.79901e+00	-2.39950e+00	
9803	9.796280e-03	-4.79009e+00	-2.39505e+00	
9804	9.797280e-03	-4.78099e+00	-2.39050e+00	
9805	9.798280e-03	-4.77170e+00	-2.38585e+00	
9806	9.799280e-03	-4.76222e+00	-2.38111e+00	
9807	9.800280e-03	-4.75256e+00	-2.37628e+00	
9808	9.801280e-03	-4.74270e+00	-2.37135e+00	
9809	9.802280e-03	-4.73266e+00	-2.36633e+00	
9810	9.803280e-03	-4.72243e+00	-2.36122e+00	
9811	9.804280e-03	-4.71202e+00	-2.35601e+00	
9812	9.805280e-03	-4.70142e+00	-2.35071e+00	
9813	9.806280e-03	-4.69063e+00	-2.34532e+00	
9814	9.807280e-03	-4.67966e+00	-2.33983e+00	
9815	9.808280e-03	-4.66850e+00	-2.33425e+00	
9816	9.809280e-03	-4.65716e+00	-2.32858e+00	
9817	9.810280e-03	-4.64564e+00	-2.32282e+00	
9818	9.811280e-03	-4.63393e+00	-2.31696e+00	
9819	9.812280e-03	-4.62204e+00	-2.31102e+00	
9820	9.813280e-03	-4.60996e+00	-2.30498e+00	
9821	9.814280e-03	-4.59771e+00	-2.29885e+00	
9822	9.815280e-03	-4.58527e+00	-2.29264e+00	
9823	9.816280e-03	-4.57265e+00	-2.28633e+00	
9824	9.817280e-03	-4.55986e+00	-2.27993e+00	
9825	9.818280e-03	-4.54688e+00	-2.27344e+00	
9826	9.819280e-03	-4.53372e+00	-2.26686e+00	
9827	9.820280e-03	-4.52038e+00	-2.26019e+00	
9828	9.821280e-03	-4.50687e+00	-2.25343e+00	
9829	9.822280e-03	-4.49317e+00	-2.24659e+00	
9830	9.823280e-03	-4.47930e+00	-2.23965e+00	
9831	9.824280e-03	-4.46526e+00	-2.23263e+00	
9832	9.825280e-03	-4.45103e+00	-2.22552e+00	
9833	9.826280e-03	-4.43663e+00	-2.21832e+00	
9834	9.827280e-03	-4.42206e+00	-2.21103e+00	
9835	9.828280e-03	-4.40731e+00	-2.20365e+00	
9836	9.829280e-03	-4.39239e+00	-2.19619e+00	
9837	9.830280e-03	-4.37729e+00	-2.18864e+00	
9838	9.831280e-03	-4.36202e+00	-2.18101e+00	
9839	9.832280e-03	-4.34658e+00	-2.17329e+00	
9840	9.833280e-03	-4.33096e+00	-2.16548e+00	
9841	9.834280e-03	-4.31518e+00	-2.15759e+00	
9842	9.835280e-03	-4.29923e+00	-2.14961e+00	
9843	9.836280e-03	-4.28310e+00	-2.14155e+00	
9844	9.837280e-03	-4.26681e+00	-2.13340e+00	
9845	9.838280e-03	-4.25035e+00	-2.12517e+00	
9846	9.839280e-03	-4.23372e+00	-2.11686e+00	
9847	9.840280e-03	-4.21692e+00	-2.10846e+00	
9848	9.841280e-03	-4.19996e+00	-2.09998e+00	
9849	9.842280e-03	-4.18283e+00	-2.09141e+00	
9850	9.843280e-03	-4.16553e+00	-2.08277e+00	
9851	9.844280e-03	-4.14807e+00	-2.07404e+00	
9852	9.845280e-03	-4.13045e+00	-2.06523e+00	
9853	9.846280e-03	-4.11267e+00	-2.05633e+00	
9854	9.847280e-03	-4.09472e+00	-2.04736e+00	
9855	9.848280e-03	-4.07661e+00	-2.03830e+00	
9856	9.849280e-03	-4.05834e+00	-2.02917e+00	

Index   time            v(nodea)        v(nodeb)        
--------------------------------------------------------------------------------
9857	9.850280e-03	-4.03991e+00	-2.01995e+00	
9858	9.851280e-03	-4.02132e+00	-2.01066e+00	
9859	9.852280e-03	-4.00257e+00	-2.00128e+00	
9860	9.853280e-03	-3.98366e+00	-1.99183e+00	
9861	9.854280e-03	-3.96460e+00	-1.98230e+00	
9862	9.855280e-03	-3.94538e+00	-1.97269e+00	
9863	9.856280e-03	-3.92600e+00	-1.96300e+00	
9864	9.857280e-03	-3.90647e+00	-1.95323e+00	
9865	9.858280e-03	-3.88678e+00	-1.94339e+00	
9866	9.859280e-03	-3.86694e+00	-1.93347e+00	
9867	9.860280e-03	-3.84695e+00	-1.92348e+00	
9868	9.861280e-03	-3.82681e+00	-1.91340e+00	
9869	9.862280e-03	-3.80651e+00	-1.90326e+00	
9870	9.863280e-03	-3.78607e+00	-1.89303e+00	
9871	9.864280e-03	-3.76548e+00	-1.88274e+00	
9872	9.865280e-03	-3.74473e+00	-1.87237e+00	
9873	9.866280e-03	-3.72384e+00	-1.86192e+00	
9874	9.867280e-03	-3.70280e+00	-1.85140e+00	
9875	9.868280e-03	-3.68162e+00	-1.84081e+00	
9876	9.869280e-03	-3.66029e+00	-1.83014e+00	
9877	9.870280e-03	-3.63882e+00	-1.81941e+00	
9878	9.871280e-03	-3.61720e+00	-1.80860e+00	
9879	9.872280e-03	-3.59544e+00	-1.79772e+00	
9880	9.873280e-03	-3.57354e+00	-1.78677e+00	
9881	9.874280e-03	-3.55149e+00	-1.77575e+00	
9882	9.875280e-03	-3.52931e+00	-1.76465e+00	
9883	9.876280e-03	-3.50699e+00	-1.75349e+00	
9884	9.877280e-03	-3.48452e+00	-1.74226e+00	
9885	9.878280e-03	-3.46192e+00	-1.73096e+00	
9886	9.879280e-03	-3.43919e+00	-1.71959e+00	
9887	9.880280e-03	-3.41632e+00	-1.70816e+00	
9888	9.881280e-03	-3.39331e+00	-1.69666e+00	
9889	9.882280e-03	-3.37017e+00	-1.68509e+00	
9890	9.883280e-03	-3.34690e+00	-1.67345e+00	
9891	9.884280e-03	-3.32349e+00	-1.66175e+00	
9892	9.885280e-03	-3.29996e+00	-1.64998e+00	
9893	9.886280e-03	-3.27629e+00	-1.63814e+00	
9894	9.887280e-03	-3.25249e+00	-1.62625e+00	
9895	9.888280e-03	-3.22857e+00	-1.61428e+00	
9896	9.889280e-03	-3.20452e+00	-1.60226e+00	
9897	9.890280e-03	-3.18034e+00	-1.59017e+00	
9898	9.891280e-03	-3.15603e+00	-1.57802e+00	
9899	9.892280e-03	-3.13160e+00	-1.56580e+00	
9900	9.893280e-03	-3.10705e+00	-1.55353e+00	
9901	9.894280e-03	-3.08238e+00	-1.54119e+00	
9902	9.895280e-03	-3.05758e+00	-1.52879e+00	
9903	9.896280e-03	-3.03266e+00	-1.51633e+00	
9904	9.897280e-03	-3.00763e+00	-1.50381e+00	
9905	9.898280e-03	-2.98247e+00	-1.49123e+00	
9906	9.899280e-03	-2.95720e+00	-1.47860e+00	
9907	9.900280e-03	-2.93181e+00	-1.46590e+00	
9908	9.901280e-03	-2.90630e+00	-1.45315e+00	
9909	9.902280e-03	-2.88068e+00	-1.44034e+00	
9910	9.903280e-03	-2.85494e+00	-1.42747e+00	
9911	9.904280e-03	-2.82910e+00	-1.41455e+00	
9912	9.905280e-03	-2.80314e+00	-1.40157e+00	
9913	9.906280e-03	-2.77707e+00	-1.38853e+00	
9914	9.907280e-03	-2.75089e+00	-1.37544e+00	

Index   time            v(nodea)        v(nodeb)        
--------------------------------------------------------------------------------
9915	9.908280e-03	-2.72460e+00	-1.36230e+00	
9916	9.909280e-03	-2.69820e+00	-1.34910e+00	
9917	9.910280e-03	-2.67170e+00	-1.33585e+00	
9918	9.911280e-03	-2.64510e+00	-1.32255e+00	
9919	9.912280e-03	-2.61838e+00	-1.30919e+00	
9920	9.913280e-03	-2.59157e+00	-1.29578e+00	
9921	9.914280e-03	-2.56465e+00	-1.28233e+00	
9922	9.915280e-03	-2.53763e+00	-1.26882e+00	
9923	9.916280e-03	-2.51051e+00	-1.25526e+00	
9924	9.917280e-03	-2.48329e+00	-1.24165e+00	
9925	9.918280e-03	-2.45598e+00	-1.22799e+00	
9926	9.919280e-03	-2.42857e+00	-1.21428e+00	
9927	9.920280e-03	-2.40106e+00	-1.20053e+00	
9928	9.921280e-03	-2.37345e+00	-1.18673e+00	
9929	9.922280e-03	-2.34575e+00	-1.17288e+00	
9930	9.923280e-03	-2.31796e+00	-1.15898e+00	
9931	9.924280e-03	-2.29008e+00	-1.14504e+00	
9932	9.925280e-03	-2.26211e+00	-1.13106e+00	
9933	9.926280e-03	-2.23405e+00	-1.11702e+00	
9934	9.927280e-03	-2.20590e+00	-1.10295e+00	
9935	9.928280e-03	-2.17766e+00	-1.08883e+00	
9936	9.929280e-03	-2.14934e+00	-1.07467e+00	
9937	9.930280e-03	-2.12093e+00	-1.06047e+00	
9938	9.931280e-03	-2.09244e+00	-1.04622e+00	
9939	9.932280e-03	-2.06387e+00	-1.03193e+00	
9940	9.933280e-03	-2.03521e+00	-1.01761e+00	
9941	9.934280e-03	-2.00648e+00	-1.00324e+00	
9942	9.935280e-03	-1.97766e+00	-9.88832e-01	
9943	9.936280e-03	-1.94877e+00	-9.74385e-01	
9944	9.937280e-03	-1.91980e+00	-9.59900e-01	
9945	9.938280e-03	-1.89076e+00	-9.45378e-01	
9946	9.939280e-03	-1.86163e+00	-9.30817e-01	
9947	9.940280e-03	-1.83244e+00	-9.16221e-01	
9948	9.941280e-03	-1.80318e+00	-9.01588e-01	
9949	9.942280e-03	-1.77384e+00	-8.86919e-01	
9950	9.943280e-03	-1.74443e+00	-8.72215e-01	
9951	9.944280e-03	-1.71495e+00	-8.57477e-01	
9952	9.945280e-03	-1.68541e+00	-8.42705e-01	
9953	9.946280e-03	-1.65580e+00	-8.27900e-01	
9954	9.947280e-03	-1.62612e+00	-8.13062e-01	
9955	9.948280e-03	-1.59638e+00	-7.98192e-01	
9956	9.949280e-03	-1.56658e+00	-7.83291e-01	
9957	9.950280e-03	-1.53672e+00	-7.68358e-01	
9958	9.951280e-03	-1.50679e+00	-7.53396e-01	
9959	9.952280e-03	-1.47681e+00	-7.38403e-01	
9960	9.953280e-03	-1.44676e+00	-7.23381e-01	
9961	9.954280e-03	-1.41666e+00	-7.08331e-01	
9962	9.955280e-03	-1.38651e+00	-6.93253e-01	
9963	9.956280e-03	-1.35630e+00	-6.78148e-01	
9964	9.957280e-03	-1.32603e+00	-6.63015e-01	
9965	9.958280e-03	-1.29571e+00	-6.47857e-01	
9966	9.959280e-03	-1.26535e+00	-6.32673e-01	
9967	9.960280e-03	-1.23493e+00	-6.17464e-01	
9968	9.961280e-03	-1.20446e+00	-6.02230e-01	
9969	9.962280e-03	-1.17395e+00	-5.86973e-01	
9970	9.963280e-03	-1.14339e+00	-5.71693e-01	
9971	9.964280e-03	-1.11278e+00	-5.56390e-01	
9972	9.965280e-03	-1.08213e+00	-5.41065e-01	

Index   time            v(nodea)        v(nodeb)        
--------------------------------------------------------------------------------
9973	9.966280e-03	-1.05144e+00	-5.25719e-01	
9974	9.967280e-03	-1.02070e+00	-5.10352e-01	
9975	9.968280e-03	-9.89929e-01	-4.94965e-01	
9976	9.969280e-03	-9.59116e-01	-4.79558e-01	
9977	9.970280e-03	-9.28264e-01	-4.64132e-01	
9978	9.971280e-03	-8.97377e-01	-4.48688e-01	
9979	9.972280e-03	-8.66453e-01	-4.33227e-01	
9980	9.973280e-03	-8.35496e-01	-4.17748e-01	
9981	9.974280e-03	-8.04505e-01	-4.02253e-01	
9982	9.975280e-03	-7.73483e-01	-3.86741e-01	
9983	9.976280e-03	-7.42430e-01	-3.71215e-01	
9984	9.977280e-03	-7.11348e-01	-3.55674e-01	
9985	9.978280e-03	-6.80238e-01	-3.40119e-01	
9986	9.979280e-03	-6.49101e-01	-3.24550e-01	
9987	9.980280e-03	-6.17938e-01	-3.08969e-01	
9988	9.981280e-03	-5.86751e-01	-2.93376e-01	
9989	9.982280e-03	-5.55541e-01	-2.77770e-01	
9990	9.983280e-03	-5.24309e-01	-2.62154e-01	
9991	9.984280e-03	-4.93056e-01	-2.46528e-01	
9992	9.985280e-03	-4.61783e-01	-2.30892e-01	
9993	9.986280e-03	-4.30493e-01	-2.15246e-01	
9994	9.987280e-03	-3.99185e-01	-1.99593e-01	
9995	9.988280e-03	-3.67862e-01	-1.83931e-01	
9996	9.989280e-03	-3.36524e-01	-1.68262e-01	
9997	9.990280e-03	-3.05173e-01	-1.52587e-01	
9998	9.991280e-03	-2.73810e-01	-1.36905e-01	
9999	9.992280e-03	-2.42436e-01	-1.21218e-01	
10000	9.993280e-03	-2.11052e-01	-1.05526e-01	
10001	9.994280e-03	-1.79660e-01	-8.98302e-02	
10002	9.995280e-03	-1.48261e-01	-7.41307e-02	
10003	9.996280e-03	-1.16857e-01	-5.84283e-02	
10004	9.997280e-03	-8.54472e-02	-4.27236e-02	
10005	9.998280e-03	-5.40343e-02	-2.70172e-02	
10006	9.999280e-03	-2.26194e-02	-1.13097e-02	
10007	1.000000e-02	-1.22465e-14	-6.12323e-15	
Note: Simulation executed from .control section 
