
Note: No compatibility mode selected!


Circuit: my test circuit

Doing analysis at TEMP = 27.000000 and TNOM = 27.000000

Using SPARSE 1.3 as Direct Linear Solver

No. of Data Rows : 1
v(nodea) = 0.000000e+00
v(nodeb) = 0.000000e+00
Doing analysis at TEMP = 27.000000 and TNOM = 27.000000

Using SPARSE 1.3 as Direct Linear Solver

No. of Data Rows : 1
	Node                                  Voltage
	----                                  -------
	----	-------
	nodeb                            0.000000e+00
	nodea                            0.000000e+00

	Source	Current
	------	-------

	vw1#branch                       0.000000e+00

 Resistor models (Simple linear resistor)
      model                     R

        rsh                     0
     narrow                     0
      short                     0
        tc1                     0
        tc2                     0
        tce                     0
       defw                 1e-05
          l                 1e-05
         kf                     0
         af                     0
          r                     0
     bv_max                 1e+99
         lf                     1
         wf                     1
         ef                     1

 Resistor: Simple linear resistor
     device                    r2                    r1
      model                     R                     R
 resistance                  1000                  1000
         ac                  1000                  1000
      dtemp                     0                     0
     bv_max                 1e+99                 1e+99
      noisy                     1                     1
          i                     0                     0
          p                     0                     0

 Vsource: Independent voltage source
     device                   vw1
         dc                     0
      acmag                     0
      pulse                     0
                                5
                             1000
                                0
                                0
                                0
        sin                     0
                                5
                             1000
                                0
                                0
                                0
        exp                     0
                                5
                             1000
                                0
                                0
                                0
        pwl                     0
                                5
                             1000
                                0
                                0
                                0
       sffm                     0
                                5
                             1000
                                0
                                0
                                0
         am                     0
                                5
                             1000
                                0
                                0
                                0
    trnoise                     0
                                5
                             1000
                                0
                                0
                                0
   trrandom                     0
                                5
                             1000
                                0
                                0
                                0
    portnum                     0
         z0                     0
        pwr                     0
       freq                     0
      phase                     0
          i                     0
          p                     0


Total analysis time (seconds) = 0.0023558

Total elapsed time (seconds) = 0.027 

Total DRAM available = 32265.086 MB.
DRAM currently available = 24327.539 MB.
Maximum ngspice program size =   17.531 MB.
Current ngspice program size =   17.531 MB.

