
Note: No compatibility mode selected!


Circuit: my test circuit

Doing analysis at TEMP = 27.000000 and TNOM = 27.000000

Using SPARSE 1.3 as Direct Linear Solver

No. of Data Rows : 1
v(nodea) = -1.00000e-06
v(nodeb) = -5.00000e-07
v(nodec) = 5.000000e-07
v(noded) = 1.000000e-06
Doing analysis at TEMP = 27.000000 and TNOM = 27.000000

Using SPARSE 1.3 as Direct Linear Solver

No. of Data Rows : 1
	Node                                  Voltage
	----                                  -------
	----	-------
	noded                            1.000000e-06
	nodec                            5.000000e-07
	nodeb                            -5.00000e-07
	nodea                            -1.00000e-06

	Source	Current
	------	-------

	v1#branch                        -5.00000e-10
	v2#branch                        -5.00000e-10

 Resistor models (Simple linear resistor)
      model                     R

        rsh                     0
     narrow                     0
      short                     0
        tc1                     0
        tc2                     0
        tce                     0
       defw                 1e-05
          l                 1e-05
         kf                     0
         af                     0
          r                     0
     bv_max                 1e+99
         lf                     1
         wf                     1
         ef                     1

 Resistor: Simple linear resistor
     device                    r4                    r3                    r2
      model                     R                     R                     R
 resistance                  1000                  1000                  1000
         ac                  1000                  1000                  1000
      dtemp                     0                     0                     0
     bv_max                 1e+99                 1e+99                 1e+99
      noisy                     1                     1                     1
          i                 5e-10                 5e-10                -5e-10
          p               2.5e-16               2.5e-16               2.5e-16

 Resistor: Simple linear resistor
     device                    r1
      model                     R
 resistance                  1000
         ac                  1000
      dtemp                     0
     bv_max                 1e+99
      noisy                     1
          i                -5e-10
          p               2.5e-16

 Vsource: Independent voltage source
     device                    v2                    v1
         dc                 1e-06                 1e-06
      acmag                     0                     0
      pulse         -         -
        sin         -         -
        exp         -         -
        pwl         -         -
       sffm         -         -
         am         -         -
    trnoise         -         -
   trrandom         -         -
    portnum                     0                     0
         z0                     0                     0
        pwr                     0                     0
       freq                     0                     0
      phase                     0                     0
          i                -5e-10                -5e-10
          p                -5e-16                -5e-16


Total analysis time (seconds) = 0.001681

Total elapsed time (seconds) = 0.064 

Total DRAM available = 32265.086 MB.
DRAM currently available = 24256.289 MB.
Maximum ngspice program size =   17.480 MB.
Current ngspice program size =   17.480 MB.

